/*---------------------------------------------------------------------------*\
| =========                 |                                                 |
| \\      /  F ield         | OpenFOAM: The Open Source CFD Toolbox           |
|  \\    /   O peration     | Version:  2.4.0                                 |
|   \\  /    A nd           | Web:      www.OpenFOAM.org                      |
|    \\/     M anipulation  |                                                 |
\*---------------------------------------------------------------------------*/
Build  : 2.4.0-dcea1e13ff76
Exec   : scalarTransportFoam
Date   : Nov 16 2015
Time   : 03:43:03
Host   : "santiago"
PID    : 6080
Case   : /root/OpenFOAM/root-2.4.0/run/Prueba
nProcs : 1
sigFpe : Enabling floating point exception trapping (FOAM_SIGFPE).
fileModificationChecking : Monitoring run-time modified files using timeStampMaster
allowSystemOperations : Allowing user-supplied system call operations

// * * * * * * * * * * * * * * * * * * * * * * * * * * * * * * * * * * * * * //
Create time

Create mesh for time = 0

Reading field T

Reading field U

Reading transportProperties

Reading diffusivity DT

Reading/calculating face flux field phi

No finite volume options present


SIMPLE: no convergence criteria found. Calculations will run for 1 steps.


Calculating scalar transport

Courant Number mean: 0.1 max: 0.1
Time = 0.0001

DILUPBiCG:  Solving for T, Initial residual = 1, Final residual = 2.71075e-17, No Iterations 1
Time = 0.0002

DILUPBiCG:  Solving for T, Initial residual = 0.1334, Final residual = 1.30739e-17, No Iterations 1
Time = 0.0003

DILUPBiCG:  Solving for T, Initial residual = 0.0570248, Final residual = 9.59565e-18, No Iterations 1
Time = 0.0004

DILUPBiCG:  Solving for T, Initial residual = 0.0343439, Final residual = 1.31401e-17, No Iterations 1
Time = 0.0005

DILUPBiCG:  Solving for T, Initial residual = 0.0244491, Final residual = 4.25327e-18, No Iterations 1
Time = 0.0006

DILUPBiCG:  Solving for T, Initial residual = 0.0190239, Final residual = 3.9551e-18, No Iterations 1
Time = 0.0007

DILUPBiCG:  Solving for T, Initial residual = 0.0155914, Final residual = 4.86659e-18, No Iterations 1
Time = 0.0008

DILUPBiCG:  Solving for T, Initial residual = 0.013214, Final residual = 2.77062e-18, No Iterations 1
Time = 0.0009

DILUPBiCG:  Solving for T, Initial residual = 0.0114636, Final residual = 3.65073e-18, No Iterations 1
Time = 0.001

DILUPBiCG:  Solving for T, Initial residual = 0.010118, Final residual = 2.67173e-18, No Iterations 1
Time = 0.0011

DILUPBiCG:  Solving for T, Initial residual = 0.00905028, Final residual = 1.48541e-18, No Iterations 1
Time = 0.0012

DILUPBiCG:  Solving for T, Initial residual = 0.00818163, Final residual = 4.1197e-18, No Iterations 1
Time = 0.0013

DILUPBiCG:  Solving for T, Initial residual = 0.00746084, Final residual = 2.99519e-18, No Iterations 1
Time = 0.0014

DILUPBiCG:  Solving for T, Initial residual = 0.00685282, Final residual = 8.98895e-18, No Iterations 1
Time = 0.0015

DILUPBiCG:  Solving for T, Initial residual = 0.00633306, Final residual = 2.32088e-18, No Iterations 1
Time = 0.0016

DILUPBiCG:  Solving for T, Initial residual = 0.00588349, Final residual = 2.21109e-18, No Iterations 1
Time = 0.0017

DILUPBiCG:  Solving for T, Initial residual = 0.00549092, Final residual = 1.40231e-18, No Iterations 1
Time = 0.0018

DILUPBiCG:  Solving for T, Initial residual = 0.00514495, Final residual = 1.77647e-18, No Iterations 1
Time = 0.0019

DILUPBiCG:  Solving for T, Initial residual = 0.00483777, Final residual = 9.79611e-19, No Iterations 1
Time = 0.002

DILUPBiCG:  Solving for T, Initial residual = 0.0045634, Final residual = 1.40949e-18, No Iterations 1
Time = 0.0021

DILUPBiCG:  Solving for T, Initial residual = 0.00431664, Final residual = 1.62405e-18, No Iterations 1
Time = 0.0022

DILUPBiCG:  Solving for T, Initial residual = 0.00409355, Final residual = 1.08502e-18, No Iterations 1
Time = 0.0023

DILUPBiCG:  Solving for T, Initial residual = 0.00389104, Final residual = 8.08778e-19, No Iterations 1
Time = 0.0024

DILUPBiCG:  Solving for T, Initial residual = 0.00370629, Final residual = 1.73178e-18, No Iterations 1
Time = 0.0025

DILUPBiCG:  Solving for T, Initial residual = 0.00353704, Final residual = 1.08831e-18, No Iterations 1
Time = 0.0026

DILUPBiCG:  Solving for T, Initial residual = 0.00338148, Final residual = 1.57554e-18, No Iterations 1
Time = 0.0027

DILUPBiCG:  Solving for T, Initial residual = 0.00323809, Final residual = 2.38316e-18, No Iterations 1
Time = 0.0028

DILUPBiCG:  Solving for T, Initial residual = 0.00310537, Final residual = 9.80738e-19, No Iterations 1
Time = 0.0029

DILUPBiCG:  Solving for T, Initial residual = 0.00298219, Final residual = 9.48874e-19, No Iterations 1
Time = 0.003

DILUPBiCG:  Solving for T, Initial residual = 0.00286765, Final residual = 8.33537e-19, No Iterations 1
Time = 0.0031

DILUPBiCG:  Solving for T, Initial residual = 0.00276089, Final residual = 4.21617e-19, No Iterations 1
Time = 0.0032

DILUPBiCG:  Solving for T, Initial residual = 0.00266106, Final residual = 1.51748e-18, No Iterations 1
Time = 0.0033

DILUPBiCG:  Solving for T, Initial residual = 0.00256751, Final residual = 8.25521e-19, No Iterations 1
Time = 0.0034

DILUPBiCG:  Solving for T, Initial residual = 0.00247973, Final residual = 1.91881e-18, No Iterations 1
Time = 0.0035

DILUPBiCG:  Solving for T, Initial residual = 0.00239723, Final residual = 1.2726e-18, No Iterations 1
Time = 0.0036

DILUPBiCG:  Solving for T, Initial residual = 0.00231951, Final residual = 1.68232e-18, No Iterations 1
Time = 0.0037

DILUPBiCG:  Solving for T, Initial residual = 0.00224614, Final residual = 7.90755e-19, No Iterations 1
Time = 0.0038

DILUPBiCG:  Solving for T, Initial residual = 0.00217678, Final residual = 3.31926e-19, No Iterations 1
Time = 0.0039

DILUPBiCG:  Solving for T, Initial residual = 0.00211116, Final residual = 5.10309e-19, No Iterations 1
Time = 0.004

DILUPBiCG:  Solving for T, Initial residual = 0.00204899, Final residual = 7.98747e-19, No Iterations 1
Time = 0.0041

DILUPBiCG:  Solving for T, Initial residual = 0.00198997, Final residual = 5.92515e-19, No Iterations 1
Time = 0.0042

DILUPBiCG:  Solving for T, Initial residual = 0.00193387, Final residual = 1.2613e-18, No Iterations 1
Time = 0.0043

DILUPBiCG:  Solving for T, Initial residual = 0.00188047, Final residual = 1.53729e-18, No Iterations 1
Time = 0.0044

DILUPBiCG:  Solving for T, Initial residual = 0.00182963, Final residual = 6.2955e-19, No Iterations 1
Time = 0.0045

DILUPBiCG:  Solving for T, Initial residual = 0.00178116, Final residual = 1.31163e-18, No Iterations 1
Time = 0.0046

DILUPBiCG:  Solving for T, Initial residual = 0.0017349, Final residual = 3.80302e-19, No Iterations 1
Time = 0.0047

DILUPBiCG:  Solving for T, Initial residual = 0.00169067, Final residual = 1.07501e-18, No Iterations 1
Time = 0.0048

DILUPBiCG:  Solving for T, Initial residual = 0.00164835, Final residual = 1.0902e-18, No Iterations 1
Time = 0.0049

DILUPBiCG:  Solving for T, Initial residual = 0.00160784, Final residual = 4.38317e-19, No Iterations 1
Time = 0.005

DILUPBiCG:  Solving for T, Initial residual = 0.00156904, Final residual = 5.59987e-19, No Iterations 1
Time = 0.0051

DILUPBiCG:  Solving for T, Initial residual = 0.00153184, Final residual = 7.53016e-19, No Iterations 1
Time = 0.0052

DILUPBiCG:  Solving for T, Initial residual = 0.00149614, Final residual = 6.06397e-19, No Iterations 1
Time = 0.0053

DILUPBiCG:  Solving for T, Initial residual = 0.00146183, Final residual = 7.01835e-19, No Iterations 1
Time = 0.0054

DILUPBiCG:  Solving for T, Initial residual = 0.00142883, Final residual = 4.6833e-19, No Iterations 1
Time = 0.0055

DILUPBiCG:  Solving for T, Initial residual = 0.0013971, Final residual = 8.04182e-19, No Iterations 1
Time = 0.0056

DILUPBiCG:  Solving for T, Initial residual = 0.00136657, Final residual = 6.08636e-19, No Iterations 1
Time = 0.0057

DILUPBiCG:  Solving for T, Initial residual = 0.00133716, Final residual = 9.89656e-19, No Iterations 1
Time = 0.0058

DILUPBiCG:  Solving for T, Initial residual = 0.00130883, Final residual = 1.2721e-18, No Iterations 1
Time = 0.0059

DILUPBiCG:  Solving for T, Initial residual = 0.00128149, Final residual = 1.36106e-18, No Iterations 1
Time = 0.006

DILUPBiCG:  Solving for T, Initial residual = 0.00125509, Final residual = 3.53651e-19, No Iterations 1
Time = 0.0061

DILUPBiCG:  Solving for T, Initial residual = 0.0012296, Final residual = 3.62592e-19, No Iterations 1
Time = 0.0062

DILUPBiCG:  Solving for T, Initial residual = 0.00120498, Final residual = 5.24063e-19, No Iterations 1
Time = 0.0063

DILUPBiCG:  Solving for T, Initial residual = 0.00118118, Final residual = 6.26827e-19, No Iterations 1
Time = 0.0064

DILUPBiCG:  Solving for T, Initial residual = 0.00115817, Final residual = 3.64832e-19, No Iterations 1
Time = 0.0065

DILUPBiCG:  Solving for T, Initial residual = 0.00113591, Final residual = 2.64347e-19, No Iterations 1
Time = 0.0066

DILUPBiCG:  Solving for T, Initial residual = 0.00111436, Final residual = 5.73013e-19, No Iterations 1
Time = 0.0067

DILUPBiCG:  Solving for T, Initial residual = 0.00109346, Final residual = 3.23281e-19, No Iterations 1
Time = 0.0068

DILUPBiCG:  Solving for T, Initial residual = 0.00107322, Final residual = 6.90095e-19, No Iterations 1
Time = 0.0069

DILUPBiCG:  Solving for T, Initial residual = 0.00105359, Final residual = 7.22072e-19, No Iterations 1
Time = 0.007

DILUPBiCG:  Solving for T, Initial residual = 0.00103456, Final residual = 2.36501e-19, No Iterations 1
Time = 0.0071

DILUPBiCG:  Solving for T, Initial residual = 0.0010161, Final residual = 7.42951e-19, No Iterations 1
Time = 0.0072

DILUPBiCG:  Solving for T, Initial residual = 0.000998184, Final residual = 3.49643e-19, No Iterations 1
Time = 0.0073

DILUPBiCG:  Solving for T, Initial residual = 0.00098079, Final residual = 2.65503e-19, No Iterations 1
Time = 0.0074

DILUPBiCG:  Solving for T, Initial residual = 0.000963881, Final residual = 4.59766e-19, No Iterations 1
Time = 0.0075

DILUPBiCG:  Solving for T, Initial residual = 0.000947441, Final residual = 2.21042e-19, No Iterations 1
Time = 0.0076

DILUPBiCG:  Solving for T, Initial residual = 0.000931458, Final residual = 8.76476e-19, No Iterations 1
Time = 0.0077

DILUPBiCG:  Solving for T, Initial residual = 0.000915918, Final residual = 2.34779e-19, No Iterations 1
Time = 0.0078

DILUPBiCG:  Solving for T, Initial residual = 0.000900802, Final residual = 4.20569e-19, No Iterations 1
Time = 0.0079

DILUPBiCG:  Solving for T, Initial residual = 0.000886094, Final residual = 7.02127e-19, No Iterations 1
Time = 0.008

DILUPBiCG:  Solving for T, Initial residual = 0.000871778, Final residual = 2.08445e-19, No Iterations 1
Time = 0.0081

DILUPBiCG:  Solving for T, Initial residual = 0.000857839, Final residual = 2.38749e-19, No Iterations 1
Time = 0.0082

DILUPBiCG:  Solving for T, Initial residual = 0.000844258, Final residual = 1.4366e-18, No Iterations 1
Time = 0.0083

DILUPBiCG:  Solving for T, Initial residual = 0.000831018, Final residual = 3.15361e-19, No Iterations 1
Time = 0.0084

DILUPBiCG:  Solving for T, Initial residual = 0.000818108, Final residual = 2.82156e-19, No Iterations 1
Time = 0.0085

DILUPBiCG:  Solving for T, Initial residual = 0.000805522, Final residual = 5.06456e-19, No Iterations 1
Time = 0.0086

DILUPBiCG:  Solving for T, Initial residual = 0.00079325, Final residual = 2.48816e-19, No Iterations 1
Time = 0.0087

DILUPBiCG:  Solving for T, Initial residual = 0.00078128, Final residual = 4.23494e-19, No Iterations 1
Time = 0.0088

DILUPBiCG:  Solving for T, Initial residual = 0.0007696, Final residual = 1.95893e-19, No Iterations 1
Time = 0.0089

DILUPBiCG:  Solving for T, Initial residual = 0.000758202, Final residual = 6.26619e-19, No Iterations 1
Time = 0.009

DILUPBiCG:  Solving for T, Initial residual = 0.000747076, Final residual = 6.92887e-19, No Iterations 1
Time = 0.0091

DILUPBiCG:  Solving for T, Initial residual = 0.000736212, Final residual = 2.51909e-19, No Iterations 1
Time = 0.0092

DILUPBiCG:  Solving for T, Initial residual = 0.000725593, Final residual = 2.0393e-19, No Iterations 1
Time = 0.0093

DILUPBiCG:  Solving for T, Initial residual = 0.000715213, Final residual = 1.06756e-18, No Iterations 1
Time = 0.0094

DILUPBiCG:  Solving for T, Initial residual = 0.000705069, Final residual = 3.837e-19, No Iterations 1
Time = 0.0095

DILUPBiCG:  Solving for T, Initial residual = 0.000695155, Final residual = 3.31607e-19, No Iterations 1
Time = 0.0096

DILUPBiCG:  Solving for T, Initial residual = 0.000685463, Final residual = 2.96909e-19, No Iterations 1
Time = 0.0097

DILUPBiCG:  Solving for T, Initial residual = 0.000675987, Final residual = 3.86568e-19, No Iterations 1
Time = 0.0098

DILUPBiCG:  Solving for T, Initial residual = 0.000666718, Final residual = 2.31352e-19, No Iterations 1
Time = 0.0099

DILUPBiCG:  Solving for T, Initial residual = 0.000657651, Final residual = 2.57139e-19, No Iterations 1
Time = 0.01

DILUPBiCG:  Solving for T, Initial residual = 0.00064878, Final residual = 1.89102e-19, No Iterations 1
Time = 0.0101

DILUPBiCG:  Solving for T, Initial residual = 0.000640098, Final residual = 4.38742e-19, No Iterations 1
Time = 0.0102

DILUPBiCG:  Solving for T, Initial residual = 0.000631596, Final residual = 1.56489e-19, No Iterations 1
Time = 0.0103

DILUPBiCG:  Solving for T, Initial residual = 0.000623267, Final residual = 1.66573e-19, No Iterations 1
Time = 0.0104

DILUPBiCG:  Solving for T, Initial residual = 0.000615109, Final residual = 6.61198e-19, No Iterations 1
Time = 0.0105

DILUPBiCG:  Solving for T, Initial residual = 0.000607119, Final residual = 1.88596e-19, No Iterations 1
Time = 0.0106

DILUPBiCG:  Solving for T, Initial residual = 0.000599292, Final residual = 2.31109e-19, No Iterations 1
Time = 0.0107

DILUPBiCG:  Solving for T, Initial residual = 0.000591623, Final residual = 1.78851e-19, No Iterations 1
Time = 0.0108

DILUPBiCG:  Solving for T, Initial residual = 0.000584108, Final residual = 1.43866e-19, No Iterations 1
Time = 0.0109

DILUPBiCG:  Solving for T, Initial residual = 0.000576743, Final residual = 2.45772e-19, No Iterations 1
Time = 0.011

DILUPBiCG:  Solving for T, Initial residual = 0.000569523, Final residual = 1.35247e-19, No Iterations 1
Time = 0.0111

DILUPBiCG:  Solving for T, Initial residual = 0.000562444, Final residual = 1.49662e-19, No Iterations 1
Time = 0.0112

DILUPBiCG:  Solving for T, Initial residual = 0.000555502, Final residual = 1.9236e-19, No Iterations 1
Time = 0.0113

DILUPBiCG:  Solving for T, Initial residual = 0.000548692, Final residual = 5.35689e-19, No Iterations 1
Time = 0.0114

DILUPBiCG:  Solving for T, Initial residual = 0.000542008, Final residual = 4.73133e-19, No Iterations 1
Time = 0.0115

DILUPBiCG:  Solving for T, Initial residual = 0.000535448, Final residual = 3.18899e-19, No Iterations 1
Time = 0.0116

DILUPBiCG:  Solving for T, Initial residual = 0.00052901, Final residual = 2.64716e-19, No Iterations 1
Time = 0.0117

DILUPBiCG:  Solving for T, Initial residual = 0.000522692, Final residual = 1.83586e-19, No Iterations 1
Time = 0.0118

DILUPBiCG:  Solving for T, Initial residual = 0.000516491, Final residual = 1.33113e-19, No Iterations 1
Time = 0.0119

DILUPBiCG:  Solving for T, Initial residual = 0.000510404, Final residual = 1.36844e-19, No Iterations 1
Time = 0.012

DILUPBiCG:  Solving for T, Initial residual = 0.000504428, Final residual = 3.44474e-19, No Iterations 1
Time = 0.0121

DILUPBiCG:  Solving for T, Initial residual = 0.000498559, Final residual = 6.66381e-19, No Iterations 1
Time = 0.0122

DILUPBiCG:  Solving for T, Initial residual = 0.000492795, Final residual = 4.04968e-19, No Iterations 1
Time = 0.0123

DILUPBiCG:  Solving for T, Initial residual = 0.000487134, Final residual = 5.55133e-19, No Iterations 1
Time = 0.0124

DILUPBiCG:  Solving for T, Initial residual = 0.000481573, Final residual = 1.38554e-19, No Iterations 1
Time = 0.0125

DILUPBiCG:  Solving for T, Initial residual = 0.000476109, Final residual = 1.05228e-19, No Iterations 1
Time = 0.0126

DILUPBiCG:  Solving for T, Initial residual = 0.000470737, Final residual = 1.40967e-19, No Iterations 1
Time = 0.0127

DILUPBiCG:  Solving for T, Initial residual = 0.000465456, Final residual = 1.68859e-19, No Iterations 1
Time = 0.0128

DILUPBiCG:  Solving for T, Initial residual = 0.000460263, Final residual = 3.5634e-19, No Iterations 1
Time = 0.0129

DILUPBiCG:  Solving for T, Initial residual = 0.000455159, Final residual = 2.18205e-19, No Iterations 1
Time = 0.013

DILUPBiCG:  Solving for T, Initial residual = 0.000450142, Final residual = 4.1312e-19, No Iterations 1
Time = 0.0131

DILUPBiCG:  Solving for T, Initial residual = 0.000445208, Final residual = 4.41797e-19, No Iterations 1
Time = 0.0132

DILUPBiCG:  Solving for T, Initial residual = 0.000440357, Final residual = 1.5887e-19, No Iterations 1
Time = 0.0133

DILUPBiCG:  Solving for T, Initial residual = 0.000435586, Final residual = 1.85704e-19, No Iterations 1
Time = 0.0134

DILUPBiCG:  Solving for T, Initial residual = 0.000430893, Final residual = 2.55949e-19, No Iterations 1
Time = 0.0135

DILUPBiCG:  Solving for T, Initial residual = 0.000426277, Final residual = 1.48147e-19, No Iterations 1
Time = 0.0136

DILUPBiCG:  Solving for T, Initial residual = 0.000421736, Final residual = 1.34348e-19, No Iterations 1
Time = 0.0137

DILUPBiCG:  Solving for T, Initial residual = 0.000417268, Final residual = 5.0421e-19, No Iterations 1
Time = 0.0138

DILUPBiCG:  Solving for T, Initial residual = 0.000412871, Final residual = 1.9573e-19, No Iterations 1
Time = 0.0139

DILUPBiCG:  Solving for T, Initial residual = 0.000408544, Final residual = 2.26288e-19, No Iterations 1
Time = 0.014

DILUPBiCG:  Solving for T, Initial residual = 0.000404284, Final residual = 2.96655e-19, No Iterations 1
Time = 0.0141

DILUPBiCG:  Solving for T, Initial residual = 0.000400088, Final residual = 1.32589e-19, No Iterations 1
Time = 0.0142

DILUPBiCG:  Solving for T, Initial residual = 0.000395956, Final residual = 1.03721e-19, No Iterations 1
Time = 0.0143

DILUPBiCG:  Solving for T, Initial residual = 0.000391889, Final residual = 3.42809e-19, No Iterations 1
Time = 0.0144

DILUPBiCG:  Solving for T, Initial residual = 0.000387885, Final residual = 1.05718e-19, No Iterations 1
Time = 0.0145

DILUPBiCG:  Solving for T, Initial residual = 0.000383941, Final residual = 9.92383e-20, No Iterations 1
Time = 0.0146

DILUPBiCG:  Solving for T, Initial residual = 0.000380058, Final residual = 1.39821e-19, No Iterations 1
Time = 0.0147

DILUPBiCG:  Solving for T, Initial residual = 0.000376233, Final residual = 1.1512e-19, No Iterations 1
Time = 0.0148

DILUPBiCG:  Solving for T, Initial residual = 0.000372466, Final residual = 1.89698e-19, No Iterations 1
Time = 0.0149

DILUPBiCG:  Solving for T, Initial residual = 0.000368755, Final residual = 1.08441e-19, No Iterations 1
Time = 0.015

DILUPBiCG:  Solving for T, Initial residual = 0.000365098, Final residual = 1.15378e-19, No Iterations 1
Time = 0.0151

DILUPBiCG:  Solving for T, Initial residual = 0.000361496, Final residual = 1.11653e-19, No Iterations 1
Time = 0.0152

DILUPBiCG:  Solving for T, Initial residual = 0.000357947, Final residual = 3.1322e-19, No Iterations 1
Time = 0.0153

DILUPBiCG:  Solving for T, Initial residual = 0.000354449, Final residual = 1.26144e-19, No Iterations 1
Time = 0.0154

DILUPBiCG:  Solving for T, Initial residual = 0.000351002, Final residual = 9.87784e-20, No Iterations 1
Time = 0.0155

DILUPBiCG:  Solving for T, Initial residual = 0.000347604, Final residual = 1.13561e-19, No Iterations 1
Time = 0.0156

DILUPBiCG:  Solving for T, Initial residual = 0.000344253, Final residual = 2.33924e-19, No Iterations 1
Time = 0.0157

DILUPBiCG:  Solving for T, Initial residual = 0.000340948, Final residual = 8.25523e-20, No Iterations 1
Time = 0.0158

DILUPBiCG:  Solving for T, Initial residual = 0.00033769, Final residual = 3.07304e-19, No Iterations 1
Time = 0.0159

DILUPBiCG:  Solving for T, Initial residual = 0.000334478, Final residual = 3.42586e-19, No Iterations 1
Time = 0.016

DILUPBiCG:  Solving for T, Initial residual = 0.000331311, Final residual = 1.23495e-19, No Iterations 1
Time = 0.0161

DILUPBiCG:  Solving for T, Initial residual = 0.000328188, Final residual = 1.54701e-19, No Iterations 1
Time = 0.0162

DILUPBiCG:  Solving for T, Initial residual = 0.000325109, Final residual = 3.61173e-19, No Iterations 1
Time = 0.0163

DILUPBiCG:  Solving for T, Initial residual = 0.000322071, Final residual = 1.1074e-19, No Iterations 1
Time = 0.0164

DILUPBiCG:  Solving for T, Initial residual = 0.000319075, Final residual = 8.94697e-20, No Iterations 1
Time = 0.0165

DILUPBiCG:  Solving for T, Initial residual = 0.00031612, Final residual = 9.77703e-20, No Iterations 1
Time = 0.0166

DILUPBiCG:  Solving for T, Initial residual = 0.000313205, Final residual = 2.88985e-19, No Iterations 1
Time = 0.0167

DILUPBiCG:  Solving for T, Initial residual = 0.00031033, Final residual = 1.53712e-19, No Iterations 1
Time = 0.0168

DILUPBiCG:  Solving for T, Initial residual = 0.000307493, Final residual = 3.09018e-19, No Iterations 1
Time = 0.0169

DILUPBiCG:  Solving for T, Initial residual = 0.000304693, Final residual = 2.08747e-19, No Iterations 1
Time = 0.017

DILUPBiCG:  Solving for T, Initial residual = 0.000301931, Final residual = 2.69502e-19, No Iterations 1
Time = 0.0171

DILUPBiCG:  Solving for T, Initial residual = 0.000299205, Final residual = 2.47822e-19, No Iterations 1
Time = 0.0172

DILUPBiCG:  Solving for T, Initial residual = 0.000296515, Final residual = 2.36095e-19, No Iterations 1
Time = 0.0173

DILUPBiCG:  Solving for T, Initial residual = 0.000293859, Final residual = 9.95938e-20, No Iterations 1
Time = 0.0174

DILUPBiCG:  Solving for T, Initial residual = 0.000291236, Final residual = 9.21427e-20, No Iterations 1
Time = 0.0175

DILUPBiCG:  Solving for T, Initial residual = 0.000288647, Final residual = 1.15905e-19, No Iterations 1
Time = 0.0176

DILUPBiCG:  Solving for T, Initial residual = 0.000286091, Final residual = 1.1321e-19, No Iterations 1
Time = 0.0177

DILUPBiCG:  Solving for T, Initial residual = 0.000283568, Final residual = 1.5404e-19, No Iterations 1
Time = 0.0178

DILUPBiCG:  Solving for T, Initial residual = 0.000281077, Final residual = 8.21568e-20, No Iterations 1
Time = 0.0179

DILUPBiCG:  Solving for T, Initial residual = 0.000278618, Final residual = 2.08163e-19, No Iterations 1
Time = 0.018

DILUPBiCG:  Solving for T, Initial residual = 0.000276189, Final residual = 1.57711e-19, No Iterations 1
Time = 0.0181

DILUPBiCG:  Solving for T, Initial residual = 0.000273792, Final residual = 8.52224e-20, No Iterations 1
Time = 0.0182

DILUPBiCG:  Solving for T, Initial residual = 0.000271424, Final residual = 1.01177e-19, No Iterations 1
Time = 0.0183

DILUPBiCG:  Solving for T, Initial residual = 0.000269085, Final residual = 7.48574e-20, No Iterations 1
Time = 0.0184

DILUPBiCG:  Solving for T, Initial residual = 0.000266776, Final residual = 6.87059e-20, No Iterations 1
Time = 0.0185

DILUPBiCG:  Solving for T, Initial residual = 0.000264494, Final residual = 7.35748e-20, No Iterations 1
Time = 0.0186

DILUPBiCG:  Solving for T, Initial residual = 0.000262241, Final residual = 2.03132e-19, No Iterations 1
Time = 0.0187

DILUPBiCG:  Solving for T, Initial residual = 0.000260015, Final residual = 2.89431e-19, No Iterations 1
Time = 0.0188

DILUPBiCG:  Solving for T, Initial residual = 0.000257817, Final residual = 7.92006e-20, No Iterations 1
Time = 0.0189

DILUPBiCG:  Solving for T, Initial residual = 0.000255645, Final residual = 7.27335e-20, No Iterations 1
Time = 0.019

DILUPBiCG:  Solving for T, Initial residual = 0.000253499, Final residual = 5.41078e-20, No Iterations 1
Time = 0.0191

DILUPBiCG:  Solving for T, Initial residual = 0.000251378, Final residual = 3.30758e-19, No Iterations 1
Time = 0.0192

DILUPBiCG:  Solving for T, Initial residual = 0.000249283, Final residual = 1.4677e-19, No Iterations 1
Time = 0.0193

DILUPBiCG:  Solving for T, Initial residual = 0.000247211, Final residual = 9.4987e-20, No Iterations 1
Time = 0.0194

DILUPBiCG:  Solving for T, Initial residual = 0.000245164, Final residual = 2.88017e-19, No Iterations 1
Time = 0.0195

DILUPBiCG:  Solving for T, Initial residual = 0.00024314, Final residual = 9.95073e-20, No Iterations 1
Time = 0.0196

DILUPBiCG:  Solving for T, Initial residual = 0.00024114, Final residual = 8.03246e-20, No Iterations 1
Time = 0.0197

DILUPBiCG:  Solving for T, Initial residual = 0.000239164, Final residual = 8.32583e-20, No Iterations 1
Time = 0.0198

DILUPBiCG:  Solving for T, Initial residual = 0.00023721, Final residual = 1.45243e-19, No Iterations 1
Time = 0.0199

DILUPBiCG:  Solving for T, Initial residual = 0.000235279, Final residual = 1.34349e-19, No Iterations 1
Time = 0.02

DILUPBiCG:  Solving for T, Initial residual = 0.00023337, Final residual = 2.57134e-19, No Iterations 1
Time = 0.0201

DILUPBiCG:  Solving for T, Initial residual = 0.000231484, Final residual = 6.79857e-20, No Iterations 1
Time = 0.0202

DILUPBiCG:  Solving for T, Initial residual = 0.000229618, Final residual = 1.59773e-19, No Iterations 1
Time = 0.0203

DILUPBiCG:  Solving for T, Initial residual = 0.000227774, Final residual = 1.52087e-19, No Iterations 1
Time = 0.0204

DILUPBiCG:  Solving for T, Initial residual = 0.000225951, Final residual = 1.41444e-19, No Iterations 1
Time = 0.0205

DILUPBiCG:  Solving for T, Initial residual = 0.000224148, Final residual = 5.7967e-20, No Iterations 1
Time = 0.0206

DILUPBiCG:  Solving for T, Initial residual = 0.000222365, Final residual = 9.77409e-20, No Iterations 1
Time = 0.0207

DILUPBiCG:  Solving for T, Initial residual = 0.000220603, Final residual = 2.81877e-19, No Iterations 1
Time = 0.0208

DILUPBiCG:  Solving for T, Initial residual = 0.00021886, Final residual = 2.16716e-19, No Iterations 1
Time = 0.0209

DILUPBiCG:  Solving for T, Initial residual = 0.000217136, Final residual = 5.66704e-20, No Iterations 1
Time = 0.021

DILUPBiCG:  Solving for T, Initial residual = 0.000215431, Final residual = 4.54891e-20, No Iterations 1
Time = 0.0211

DILUPBiCG:  Solving for T, Initial residual = 0.000213745, Final residual = 7.6149e-20, No Iterations 1
Time = 0.0212

DILUPBiCG:  Solving for T, Initial residual = 0.000212078, Final residual = 9.17815e-20, No Iterations 1
Time = 0.0213

DILUPBiCG:  Solving for T, Initial residual = 0.000210429, Final residual = 7.04839e-20, No Iterations 1
Time = 0.0214

DILUPBiCG:  Solving for T, Initial residual = 0.000208797, Final residual = 6.68157e-20, No Iterations 1
Time = 0.0215

DILUPBiCG:  Solving for T, Initial residual = 0.000207182, Final residual = 1.26668e-19, No Iterations 1
Time = 0.0216

DILUPBiCG:  Solving for T, Initial residual = 0.000205585, Final residual = 1.06283e-19, No Iterations 1
Time = 0.0217

DILUPBiCG:  Solving for T, Initial residual = 0.000204004, Final residual = 7.1883e-20, No Iterations 1
Time = 0.0218

DILUPBiCG:  Solving for T, Initial residual = 0.00020244, Final residual = 1.33705e-19, No Iterations 1
Time = 0.0219

DILUPBiCG:  Solving for T, Initial residual = 0.000200893, Final residual = 8.2915e-20, No Iterations 1
Time = 0.022

DILUPBiCG:  Solving for T, Initial residual = 0.000199363, Final residual = 2.75202e-19, No Iterations 1
Time = 0.0221

DILUPBiCG:  Solving for T, Initial residual = 0.000197848, Final residual = 7.81262e-20, No Iterations 1
Time = 0.0222

DILUPBiCG:  Solving for T, Initial residual = 0.00019635, Final residual = 1.51684e-19, No Iterations 1
Time = 0.0223

DILUPBiCG:  Solving for T, Initial residual = 0.000194867, Final residual = 1.76166e-19, No Iterations 1
Time = 0.0224

DILUPBiCG:  Solving for T, Initial residual = 0.0001934, Final residual = 5.78083e-20, No Iterations 1
Time = 0.0225

DILUPBiCG:  Solving for T, Initial residual = 0.000191948, Final residual = 6.2306e-20, No Iterations 1
Time = 0.0226

DILUPBiCG:  Solving for T, Initial residual = 0.000190511, Final residual = 1.70975e-19, No Iterations 1
Time = 0.0227

DILUPBiCG:  Solving for T, Initial residual = 0.000189089, Final residual = 1.28564e-19, No Iterations 1
Time = 0.0228

DILUPBiCG:  Solving for T, Initial residual = 0.000187682, Final residual = 1.40216e-19, No Iterations 1
Time = 0.0229

DILUPBiCG:  Solving for T, Initial residual = 0.000186289, Final residual = 1.62059e-19, No Iterations 1
Time = 0.023

DILUPBiCG:  Solving for T, Initial residual = 0.00018491, Final residual = 1.29801e-19, No Iterations 1
Time = 0.0231

DILUPBiCG:  Solving for T, Initial residual = 0.000183545, Final residual = 1.04982e-19, No Iterations 1
Time = 0.0232

DILUPBiCG:  Solving for T, Initial residual = 0.000182194, Final residual = 9.33335e-20, No Iterations 1
Time = 0.0233

DILUPBiCG:  Solving for T, Initial residual = 0.000180857, Final residual = 2.67351e-19, No Iterations 1
Time = 0.0234

DILUPBiCG:  Solving for T, Initial residual = 0.000179533, Final residual = 5.13128e-20, No Iterations 1
Time = 0.0235

DILUPBiCG:  Solving for T, Initial residual = 0.000178223, Final residual = 5.20045e-20, No Iterations 1
Time = 0.0236

DILUPBiCG:  Solving for T, Initial residual = 0.000176926, Final residual = 1.07762e-19, No Iterations 1
Time = 0.0237

DILUPBiCG:  Solving for T, Initial residual = 0.000175641, Final residual = 8.27826e-20, No Iterations 1
Time = 0.0238

DILUPBiCG:  Solving for T, Initial residual = 0.000174369, Final residual = 1.17497e-19, No Iterations 1
Time = 0.0239

DILUPBiCG:  Solving for T, Initial residual = 0.00017311, Final residual = 2.50603e-19, No Iterations 1
Time = 0.024

DILUPBiCG:  Solving for T, Initial residual = 0.000171863, Final residual = 1.12708e-19, No Iterations 1
Time = 0.0241

DILUPBiCG:  Solving for T, Initial residual = 0.000170628, Final residual = 3.02557e-19, No Iterations 1
Time = 0.0242

DILUPBiCG:  Solving for T, Initial residual = 0.000169405, Final residual = 5.60416e-20, No Iterations 1
Time = 0.0243

DILUPBiCG:  Solving for T, Initial residual = 0.000168193, Final residual = 1.84713e-19, No Iterations 1
Time = 0.0244

DILUPBiCG:  Solving for T, Initial residual = 0.000166994, Final residual = 6.46331e-20, No Iterations 1
Time = 0.0245

DILUPBiCG:  Solving for T, Initial residual = 0.000165806, Final residual = 4.30537e-20, No Iterations 1
Time = 0.0246

DILUPBiCG:  Solving for T, Initial residual = 0.00016463, Final residual = 6.76067e-20, No Iterations 1
Time = 0.0247

DILUPBiCG:  Solving for T, Initial residual = 0.000163465, Final residual = 4.66745e-20, No Iterations 1
Time = 0.0248

DILUPBiCG:  Solving for T, Initial residual = 0.000162311, Final residual = 5.04985e-20, No Iterations 1
Time = 0.0249

DILUPBiCG:  Solving for T, Initial residual = 0.000161168, Final residual = 4.20547e-20, No Iterations 1
Time = 0.025

DILUPBiCG:  Solving for T, Initial residual = 0.000160036, Final residual = 1.36969e-19, No Iterations 1
Time = 0.0251

DILUPBiCG:  Solving for T, Initial residual = 0.000158915, Final residual = 1.26265e-19, No Iterations 1
Time = 0.0252

DILUPBiCG:  Solving for T, Initial residual = 0.000157805, Final residual = 8.12573e-20, No Iterations 1
Time = 0.0253

DILUPBiCG:  Solving for T, Initial residual = 0.000156705, Final residual = 1.07989e-19, No Iterations 1
Time = 0.0254

DILUPBiCG:  Solving for T, Initial residual = 0.000155615, Final residual = 7.42985e-20, No Iterations 1
Time = 0.0255

DILUPBiCG:  Solving for T, Initial residual = 0.000154536, Final residual = 2.25797e-19, No Iterations 1
Time = 0.0256

DILUPBiCG:  Solving for T, Initial residual = 0.000153466, Final residual = 1.05196e-19, No Iterations 1
Time = 0.0257

DILUPBiCG:  Solving for T, Initial residual = 0.000152407, Final residual = 4.37556e-20, No Iterations 1
Time = 0.0258

DILUPBiCG:  Solving for T, Initial residual = 0.000151357, Final residual = 4.03909e-20, No Iterations 1
Time = 0.0259

DILUPBiCG:  Solving for T, Initial residual = 0.000150318, Final residual = 3.47096e-20, No Iterations 1
Time = 0.026

DILUPBiCG:  Solving for T, Initial residual = 0.000149287, Final residual = 9.81148e-20, No Iterations 1
Time = 0.0261

DILUPBiCG:  Solving for T, Initial residual = 0.000148267, Final residual = 5.33697e-20, No Iterations 1
Time = 0.0262

DILUPBiCG:  Solving for T, Initial residual = 0.000147255, Final residual = 9.03564e-20, No Iterations 1
Time = 0.0263

DILUPBiCG:  Solving for T, Initial residual = 0.000146253, Final residual = 5.22528e-20, No Iterations 1
Time = 0.0264

DILUPBiCG:  Solving for T, Initial residual = 0.000145261, Final residual = 3.98548e-20, No Iterations 1
Time = 0.0265

DILUPBiCG:  Solving for T, Initial residual = 0.000144277, Final residual = 4.84445e-20, No Iterations 1
Time = 0.0266

DILUPBiCG:  Solving for T, Initial residual = 0.000143302, Final residual = 3.78665e-20, No Iterations 1
Time = 0.0267

DILUPBiCG:  Solving for T, Initial residual = 0.000142335, Final residual = 6.50735e-20, No Iterations 1
Time = 0.0268

DILUPBiCG:  Solving for T, Initial residual = 0.000141378, Final residual = 7.29221e-20, No Iterations 1
Time = 0.0269

DILUPBiCG:  Solving for T, Initial residual = 0.000140429, Final residual = 1.75903e-19, No Iterations 1
Time = 0.027

DILUPBiCG:  Solving for T, Initial residual = 0.000139488, Final residual = 4.06591e-20, No Iterations 1
Time = 0.0271

DILUPBiCG:  Solving for T, Initial residual = 0.000138556, Final residual = 1.05312e-19, No Iterations 1
Time = 0.0272

DILUPBiCG:  Solving for T, Initial residual = 0.000137631, Final residual = 1.51181e-19, No Iterations 1
Time = 0.0273

DILUPBiCG:  Solving for T, Initial residual = 0.000136715, Final residual = 8.57416e-20, No Iterations 1
Time = 0.0274

DILUPBiCG:  Solving for T, Initial residual = 0.000135807, Final residual = 4.4248e-20, No Iterations 1
Time = 0.0275

DILUPBiCG:  Solving for T, Initial residual = 0.000134908, Final residual = 4.79284e-20, No Iterations 1
Time = 0.0276

DILUPBiCG:  Solving for T, Initial residual = 0.000134016, Final residual = 8.74148e-20, No Iterations 1
Time = 0.0277

DILUPBiCG:  Solving for T, Initial residual = 0.000133131, Final residual = 5.37757e-20, No Iterations 1
Time = 0.0278

DILUPBiCG:  Solving for T, Initial residual = 0.000132255, Final residual = 4.7121e-20, No Iterations 1
Time = 0.0279

DILUPBiCG:  Solving for T, Initial residual = 0.000131386, Final residual = 6.01091e-20, No Iterations 1
Time = 0.028

DILUPBiCG:  Solving for T, Initial residual = 0.000130525, Final residual = 3.6344e-20, No Iterations 1
Time = 0.0281

DILUPBiCG:  Solving for T, Initial residual = 0.000129671, Final residual = 8.1245e-20, No Iterations 1
Time = 0.0282

DILUPBiCG:  Solving for T, Initial residual = 0.000128825, Final residual = 6.25078e-20, No Iterations 1
Time = 0.0283

DILUPBiCG:  Solving for T, Initial residual = 0.000127986, Final residual = 7.12777e-20, No Iterations 1
Time = 0.0284

DILUPBiCG:  Solving for T, Initial residual = 0.000127154, Final residual = 8.07571e-20, No Iterations 1
Time = 0.0285

DILUPBiCG:  Solving for T, Initial residual = 0.00012633, Final residual = 4.41913e-20, No Iterations 1
Time = 0.0286

DILUPBiCG:  Solving for T, Initial residual = 0.000125512, Final residual = 1.09431e-19, No Iterations 1
Time = 0.0287

DILUPBiCG:  Solving for T, Initial residual = 0.000124702, Final residual = 1.64141e-19, No Iterations 1
Time = 0.0288

DILUPBiCG:  Solving for T, Initial residual = 0.000123898, Final residual = 4.29053e-20, No Iterations 1
Time = 0.0289

DILUPBiCG:  Solving for T, Initial residual = 0.000123101, Final residual = 3.36584e-20, No Iterations 1
Time = 0.029

DILUPBiCG:  Solving for T, Initial residual = 0.000122311, Final residual = 5.09912e-20, No Iterations 1
Time = 0.0291

DILUPBiCG:  Solving for T, Initial residual = 0.000121528, Final residual = 1.32623e-19, No Iterations 1
Time = 0.0292

DILUPBiCG:  Solving for T, Initial residual = 0.000120751, Final residual = 7.678e-20, No Iterations 1
Time = 0.0293

DILUPBiCG:  Solving for T, Initial residual = 0.00011998, Final residual = 5.7099e-20, No Iterations 1
Time = 0.0294

DILUPBiCG:  Solving for T, Initial residual = 0.000119216, Final residual = 7.69176e-20, No Iterations 1
Time = 0.0295

DILUPBiCG:  Solving for T, Initial residual = 0.000118459, Final residual = 4.09678e-20, No Iterations 1
Time = 0.0296

DILUPBiCG:  Solving for T, Initial residual = 0.000117708, Final residual = 7.85584e-20, No Iterations 1
Time = 0.0297

DILUPBiCG:  Solving for T, Initial residual = 0.000116963, Final residual = 1.33429e-19, No Iterations 1
Time = 0.0298

DILUPBiCG:  Solving for T, Initial residual = 0.000116224, Final residual = 1.06127e-19, No Iterations 1
Time = 0.0299

DILUPBiCG:  Solving for T, Initial residual = 0.000115491, Final residual = 3.21797e-20, No Iterations 1
Time = 0.03

DILUPBiCG:  Solving for T, Initial residual = 0.000114765, Final residual = 7.01097e-20, No Iterations 1
Time = 0.0301

DILUPBiCG:  Solving for T, Initial residual = 0.000114044, Final residual = 3.30914e-20, No Iterations 1
Time = 0.0302

DILUPBiCG:  Solving for T, Initial residual = 0.000113329, Final residual = 3.1033e-20, No Iterations 1
Time = 0.0303

DILUPBiCG:  Solving for T, Initial residual = 0.00011262, Final residual = 3.84121e-20, No Iterations 1
Time = 0.0304

DILUPBiCG:  Solving for T, Initial residual = 0.000111917, Final residual = 2.62819e-20, No Iterations 1
Time = 0.0305

DILUPBiCG:  Solving for T, Initial residual = 0.000111219, Final residual = 9.4158e-20, No Iterations 1
Time = 0.0306

DILUPBiCG:  Solving for T, Initial residual = 0.000110527, Final residual = 2.86618e-20, No Iterations 1
Time = 0.0307

DILUPBiCG:  Solving for T, Initial residual = 0.000109841, Final residual = 6.89933e-20, No Iterations 1
Time = 0.0308

DILUPBiCG:  Solving for T, Initial residual = 0.00010916, Final residual = 4.82074e-20, No Iterations 1
Time = 0.0309

DILUPBiCG:  Solving for T, Initial residual = 0.000108484, Final residual = 3.74986e-20, No Iterations 1
Time = 0.031

DILUPBiCG:  Solving for T, Initial residual = 0.000107814, Final residual = 6.62719e-20, No Iterations 1
Time = 0.0311

DILUPBiCG:  Solving for T, Initial residual = 0.000107149, Final residual = 2.89913e-20, No Iterations 1
Time = 0.0312

DILUPBiCG:  Solving for T, Initial residual = 0.00010649, Final residual = 2.96798e-20, No Iterations 1
Time = 0.0313

DILUPBiCG:  Solving for T, Initial residual = 0.000105836, Final residual = 2.76673e-20, No Iterations 1
Time = 0.0314

DILUPBiCG:  Solving for T, Initial residual = 0.000105187, Final residual = 6.81614e-20, No Iterations 1
Time = 0.0315

DILUPBiCG:  Solving for T, Initial residual = 0.000104543, Final residual = 6.44186e-20, No Iterations 1
Time = 0.0316

DILUPBiCG:  Solving for T, Initial residual = 0.000103905, Final residual = 4.38893e-20, No Iterations 1
Time = 0.0317

DILUPBiCG:  Solving for T, Initial residual = 0.000103271, Final residual = 6.90897e-20, No Iterations 1
Time = 0.0318

DILUPBiCG:  Solving for T, Initial residual = 0.000102643, Final residual = 7.10209e-20, No Iterations 1
Time = 0.0319

DILUPBiCG:  Solving for T, Initial residual = 0.000102019, Final residual = 3.42407e-20, No Iterations 1
Time = 0.032

DILUPBiCG:  Solving for T, Initial residual = 0.0001014, Final residual = 4.07303e-20, No Iterations 1
Time = 0.0321

DILUPBiCG:  Solving for T, Initial residual = 0.000100786, Final residual = 6.79423e-20, No Iterations 1
Time = 0.0322

DILUPBiCG:  Solving for T, Initial residual = 0.000100177, Final residual = 8.4643e-20, No Iterations 1
Time = 0.0323

DILUPBiCG:  Solving for T, Initial residual = 9.9573e-05, Final residual = 5.97372e-20, No Iterations 1
Time = 0.0324

DILUPBiCG:  Solving for T, Initial residual = 9.89734e-05, Final residual = 1.33589e-19, No Iterations 1
Time = 0.0325

DILUPBiCG:  Solving for T, Initial residual = 9.83784e-05, Final residual = 2.72269e-20, No Iterations 1
Time = 0.0326

DILUPBiCG:  Solving for T, Initial residual = 9.77879e-05, Final residual = 2.41588e-20, No Iterations 1
Time = 0.0327

DILUPBiCG:  Solving for T, Initial residual = 9.72021e-05, Final residual = 1.05339e-19, No Iterations 1
Time = 0.0328

DILUPBiCG:  Solving for T, Initial residual = 9.66208e-05, Final residual = 4.09197e-20, No Iterations 1
Time = 0.0329

DILUPBiCG:  Solving for T, Initial residual = 9.60439e-05, Final residual = 3.72584e-20, No Iterations 1
Time = 0.033

DILUPBiCG:  Solving for T, Initial residual = 9.54714e-05, Final residual = 2.69019e-20, No Iterations 1
Time = 0.0331

DILUPBiCG:  Solving for T, Initial residual = 9.49034e-05, Final residual = 2.36637e-20, No Iterations 1
Time = 0.0332

DILUPBiCG:  Solving for T, Initial residual = 9.43396e-05, Final residual = 1.01162e-19, No Iterations 1
Time = 0.0333

DILUPBiCG:  Solving for T, Initial residual = 9.37802e-05, Final residual = 2.97725e-20, No Iterations 1
Time = 0.0334

DILUPBiCG:  Solving for T, Initial residual = 9.3225e-05, Final residual = 9.30496e-20, No Iterations 1
Time = 0.0335

DILUPBiCG:  Solving for T, Initial residual = 9.2674e-05, Final residual = 6.02745e-20, No Iterations 1
Time = 0.0336

DILUPBiCG:  Solving for T, Initial residual = 9.21272e-05, Final residual = 4.3672e-20, No Iterations 1
Time = 0.0337

DILUPBiCG:  Solving for T, Initial residual = 9.15845e-05, Final residual = 8.13145e-20, No Iterations 1
Time = 0.0338

DILUPBiCG:  Solving for T, Initial residual = 9.10459e-05, Final residual = 7.25689e-20, No Iterations 1
Time = 0.0339

DILUPBiCG:  Solving for T, Initial residual = 9.05113e-05, Final residual = 4.19508e-20, No Iterations 1
Time = 0.034

DILUPBiCG:  Solving for T, Initial residual = 8.99807e-05, Final residual = 4.21626e-20, No Iterations 1
Time = 0.0341

DILUPBiCG:  Solving for T, Initial residual = 8.94541e-05, Final residual = 2.51656e-20, No Iterations 1
Time = 0.0342

DILUPBiCG:  Solving for T, Initial residual = 8.89315e-05, Final residual = 9.92897e-20, No Iterations 1
Time = 0.0343

DILUPBiCG:  Solving for T, Initial residual = 8.84127e-05, Final residual = 3.63789e-20, No Iterations 1
Time = 0.0344

DILUPBiCG:  Solving for T, Initial residual = 8.78977e-05, Final residual = 2.90567e-20, No Iterations 1
Time = 0.0345

DILUPBiCG:  Solving for T, Initial residual = 8.73864e-05, Final residual = 7.62833e-20, No Iterations 1
Time = 0.0346

DILUPBiCG:  Solving for T, Initial residual = 8.68789e-05, Final residual = 3.25877e-20, No Iterations 1
Time = 0.0347

DILUPBiCG:  Solving for T, Initial residual = 8.63751e-05, Final residual = 2.62423e-20, No Iterations 1
Time = 0.0348

DILUPBiCG:  Solving for T, Initial residual = 8.5875e-05, Final residual = 4.4735e-20, No Iterations 1
Time = 0.0349

DILUPBiCG:  Solving for T, Initial residual = 8.53785e-05, Final residual = 2.94729e-20, No Iterations 1
Time = 0.035

DILUPBiCG:  Solving for T, Initial residual = 8.48858e-05, Final residual = 1.69662e-19, No Iterations 1
Time = 0.0351

DILUPBiCG:  Solving for T, Initial residual = 8.43966e-05, Final residual = 3.48564e-20, No Iterations 1
Time = 0.0352

DILUPBiCG:  Solving for T, Initial residual = 8.3911e-05, Final residual = 5.68747e-20, No Iterations 1
Time = 0.0353

DILUPBiCG:  Solving for T, Initial residual = 8.34289e-05, Final residual = 2.02342e-20, No Iterations 1
Time = 0.0354

DILUPBiCG:  Solving for T, Initial residual = 8.29504e-05, Final residual = 3.39032e-20, No Iterations 1
Time = 0.0355

DILUPBiCG:  Solving for T, Initial residual = 8.24753e-05, Final residual = 3.97711e-20, No Iterations 1
Time = 0.0356

DILUPBiCG:  Solving for T, Initial residual = 8.20037e-05, Final residual = 2.04165e-20, No Iterations 1
Time = 0.0357

DILUPBiCG:  Solving for T, Initial residual = 8.15354e-05, Final residual = 4.44354e-20, No Iterations 1
Time = 0.0358

DILUPBiCG:  Solving for T, Initial residual = 8.10706e-05, Final residual = 3.91076e-20, No Iterations 1
Time = 0.0359

DILUPBiCG:  Solving for T, Initial residual = 8.06091e-05, Final residual = 1.35983e-19, No Iterations 1
Time = 0.036

DILUPBiCG:  Solving for T, Initial residual = 8.01509e-05, Final residual = 7.07317e-20, No Iterations 1
Time = 0.0361

DILUPBiCG:  Solving for T, Initial residual = 7.9696e-05, Final residual = 4.34563e-20, No Iterations 1
Time = 0.0362

DILUPBiCG:  Solving for T, Initial residual = 7.92444e-05, Final residual = 2.47141e-20, No Iterations 1
Time = 0.0363

DILUPBiCG:  Solving for T, Initial residual = 7.8796e-05, Final residual = 2.26741e-20, No Iterations 1
Time = 0.0364

DILUPBiCG:  Solving for T, Initial residual = 7.83508e-05, Final residual = 8.97111e-20, No Iterations 1
Time = 0.0365

DILUPBiCG:  Solving for T, Initial residual = 7.79087e-05, Final residual = 2.38455e-20, No Iterations 1
Time = 0.0366

DILUPBiCG:  Solving for T, Initial residual = 7.74698e-05, Final residual = 1.94893e-20, No Iterations 1
Time = 0.0367

DILUPBiCG:  Solving for T, Initial residual = 7.7034e-05, Final residual = 6.46502e-20, No Iterations 1
Time = 0.0368

DILUPBiCG:  Solving for T, Initial residual = 7.66013e-05, Final residual = 3.5215e-20, No Iterations 1
Time = 0.0369

DILUPBiCG:  Solving for T, Initial residual = 7.61716e-05, Final residual = 6.09134e-20, No Iterations 1
Time = 0.037

DILUPBiCG:  Solving for T, Initial residual = 7.5745e-05, Final residual = 2.14844e-20, No Iterations 1
Time = 0.0371

DILUPBiCG:  Solving for T, Initial residual = 7.53214e-05, Final residual = 1.09842e-19, No Iterations 1
Time = 0.0372

DILUPBiCG:  Solving for T, Initial residual = 7.49007e-05, Final residual = 6.80983e-20, No Iterations 1
Time = 0.0373

DILUPBiCG:  Solving for T, Initial residual = 7.4483e-05, Final residual = 9.83953e-20, No Iterations 1
Time = 0.0374

DILUPBiCG:  Solving for T, Initial residual = 7.40682e-05, Final residual = 1.40596e-19, No Iterations 1
Time = 0.0375

DILUPBiCG:  Solving for T, Initial residual = 7.36563e-05, Final residual = 4.88793e-20, No Iterations 1
Time = 0.0376

DILUPBiCG:  Solving for T, Initial residual = 7.32472e-05, Final residual = 8.02069e-20, No Iterations 1
Time = 0.0377

DILUPBiCG:  Solving for T, Initial residual = 7.2841e-05, Final residual = 2.93519e-20, No Iterations 1
Time = 0.0378

DILUPBiCG:  Solving for T, Initial residual = 7.24377e-05, Final residual = 2.22153e-20, No Iterations 1
Time = 0.0379

DILUPBiCG:  Solving for T, Initial residual = 7.20371e-05, Final residual = 3.27426e-20, No Iterations 1
Time = 0.038

DILUPBiCG:  Solving for T, Initial residual = 7.16393e-05, Final residual = 5.20731e-20, No Iterations 1
Time = 0.0381

DILUPBiCG:  Solving for T, Initial residual = 7.12442e-05, Final residual = 1.52376e-19, No Iterations 1
Time = 0.0382

DILUPBiCG:  Solving for T, Initial residual = 7.08518e-05, Final residual = 9.49643e-20, No Iterations 1
Time = 0.0383

DILUPBiCG:  Solving for T, Initial residual = 7.04622e-05, Final residual = 2.23773e-20, No Iterations 1
Time = 0.0384

DILUPBiCG:  Solving for T, Initial residual = 7.00752e-05, Final residual = 4.64335e-20, No Iterations 1
Time = 0.0385

DILUPBiCG:  Solving for T, Initial residual = 6.96909e-05, Final residual = 9.24698e-20, No Iterations 1
Time = 0.0386

DILUPBiCG:  Solving for T, Initial residual = 6.93091e-05, Final residual = 4.31931e-20, No Iterations 1
Time = 0.0387

DILUPBiCG:  Solving for T, Initial residual = 6.893e-05, Final residual = 3.35615e-20, No Iterations 1
Time = 0.0388

DILUPBiCG:  Solving for T, Initial residual = 6.85535e-05, Final residual = 1.53465e-20, No Iterations 1
Time = 0.0389

DILUPBiCG:  Solving for T, Initial residual = 6.81795e-05, Final residual = 2.32986e-20, No Iterations 1
Time = 0.039

DILUPBiCG:  Solving for T, Initial residual = 6.78081e-05, Final residual = 7.22624e-20, No Iterations 1
Time = 0.0391

DILUPBiCG:  Solving for T, Initial residual = 6.74392e-05, Final residual = 4.47124e-20, No Iterations 1
Time = 0.0392

DILUPBiCG:  Solving for T, Initial residual = 6.70728e-05, Final residual = 3.36114e-20, No Iterations 1
Time = 0.0393

DILUPBiCG:  Solving for T, Initial residual = 6.67088e-05, Final residual = 2.84359e-20, No Iterations 1
Time = 0.0394

DILUPBiCG:  Solving for T, Initial residual = 6.63473e-05, Final residual = 6.19082e-20, No Iterations 1
Time = 0.0395

DILUPBiCG:  Solving for T, Initial residual = 6.59882e-05, Final residual = 7.47125e-20, No Iterations 1
Time = 0.0396

DILUPBiCG:  Solving for T, Initial residual = 6.56314e-05, Final residual = 4.97436e-20, No Iterations 1
Time = 0.0397

DILUPBiCG:  Solving for T, Initial residual = 6.5277e-05, Final residual = 4.33999e-20, No Iterations 1
Time = 0.0398

DILUPBiCG:  Solving for T, Initial residual = 6.4925e-05, Final residual = 5.57018e-20, No Iterations 1
Time = 0.0399

DILUPBiCG:  Solving for T, Initial residual = 6.45753e-05, Final residual = 1.95675e-20, No Iterations 1
Time = 0.04

DILUPBiCG:  Solving for T, Initial residual = 6.42279e-05, Final residual = 4.45895e-20, No Iterations 1
Time = 0.0401

DILUPBiCG:  Solving for T, Initial residual = 6.38829e-05, Final residual = 2.91377e-20, No Iterations 1
Time = 0.0402

DILUPBiCG:  Solving for T, Initial residual = 6.35401e-05, Final residual = 2.04607e-20, No Iterations 1
Time = 0.0403

DILUPBiCG:  Solving for T, Initial residual = 6.31996e-05, Final residual = 2.09424e-20, No Iterations 1
Time = 0.0404

DILUPBiCG:  Solving for T, Initial residual = 6.28614e-05, Final residual = 1.6699e-20, No Iterations 1
Time = 0.0405

DILUPBiCG:  Solving for T, Initial residual = 6.25254e-05, Final residual = 2.09395e-20, No Iterations 1
Time = 0.0406

DILUPBiCG:  Solving for T, Initial residual = 6.21917e-05, Final residual = 6.96351e-20, No Iterations 1
Time = 0.0407

DILUPBiCG:  Solving for T, Initial residual = 6.18601e-05, Final residual = 2.97179e-20, No Iterations 1
Time = 0.0408

DILUPBiCG:  Solving for T, Initial residual = 6.15307e-05, Final residual = 3.89429e-20, No Iterations 1
Time = 0.0409

DILUPBiCG:  Solving for T, Initial residual = 6.12034e-05, Final residual = 4.9225e-20, No Iterations 1
Time = 0.041

DILUPBiCG:  Solving for T, Initial residual = 6.08784e-05, Final residual = 1.81722e-20, No Iterations 1
Time = 0.0411

DILUPBiCG:  Solving for T, Initial residual = 6.05554e-05, Final residual = 2.15366e-20, No Iterations 1
Time = 0.0412

DILUPBiCG:  Solving for T, Initial residual = 6.02345e-05, Final residual = 2.60812e-20, No Iterations 1
Time = 0.0413

DILUPBiCG:  Solving for T, Initial residual = 5.99158e-05, Final residual = 2.67057e-20, No Iterations 1
Time = 0.0414

DILUPBiCG:  Solving for T, Initial residual = 5.95991e-05, Final residual = 1.48316e-20, No Iterations 1
Time = 0.0415

DILUPBiCG:  Solving for T, Initial residual = 5.92845e-05, Final residual = 5.44777e-20, No Iterations 1
Time = 0.0416

DILUPBiCG:  Solving for T, Initial residual = 5.89719e-05, Final residual = 6.75439e-20, No Iterations 1
Time = 0.0417

DILUPBiCG:  Solving for T, Initial residual = 5.86613e-05, Final residual = 6.69834e-20, No Iterations 1
Time = 0.0418

DILUPBiCG:  Solving for T, Initial residual = 5.83527e-05, Final residual = 2.15956e-20, No Iterations 1
Time = 0.0419

DILUPBiCG:  Solving for T, Initial residual = 5.80462e-05, Final residual = 2.34121e-20, No Iterations 1
Time = 0.042

DILUPBiCG:  Solving for T, Initial residual = 5.77416e-05, Final residual = 2.08827e-20, No Iterations 1
Time = 0.0421

DILUPBiCG:  Solving for T, Initial residual = 5.74389e-05, Final residual = 1.8291e-20, No Iterations 1
Time = 0.0422

DILUPBiCG:  Solving for T, Initial residual = 5.71383e-05, Final residual = 6.31328e-20, No Iterations 1
Time = 0.0423

DILUPBiCG:  Solving for T, Initial residual = 5.68395e-05, Final residual = 1.87977e-20, No Iterations 1
Time = 0.0424

DILUPBiCG:  Solving for T, Initial residual = 5.65426e-05, Final residual = 6.14587e-20, No Iterations 1
Time = 0.0425

DILUPBiCG:  Solving for T, Initial residual = 5.62477e-05, Final residual = 2.095e-20, No Iterations 1
Time = 0.0426

DILUPBiCG:  Solving for T, Initial residual = 5.59546e-05, Final residual = 3.53207e-20, No Iterations 1
Time = 0.0427

DILUPBiCG:  Solving for T, Initial residual = 5.56634e-05, Final residual = 1.76599e-20, No Iterations 1
Time = 0.0428

DILUPBiCG:  Solving for T, Initial residual = 5.53741e-05, Final residual = 1.53292e-20, No Iterations 1
Time = 0.0429

DILUPBiCG:  Solving for T, Initial residual = 5.50866e-05, Final residual = 2.4744e-20, No Iterations 1
Time = 0.043

DILUPBiCG:  Solving for T, Initial residual = 5.48009e-05, Final residual = 5.72384e-20, No Iterations 1
Time = 0.0431

DILUPBiCG:  Solving for T, Initial residual = 5.4517e-05, Final residual = 2.59448e-20, No Iterations 1
Time = 0.0432

DILUPBiCG:  Solving for T, Initial residual = 5.42349e-05, Final residual = 1.6487e-20, No Iterations 1
Time = 0.0433

DILUPBiCG:  Solving for T, Initial residual = 5.39546e-05, Final residual = 1.79826e-20, No Iterations 1
Time = 0.0434

DILUPBiCG:  Solving for T, Initial residual = 5.3676e-05, Final residual = 1.47423e-20, No Iterations 1
Time = 0.0435

DILUPBiCG:  Solving for T, Initial residual = 5.33993e-05, Final residual = 1.81756e-20, No Iterations 1
Time = 0.0436

DILUPBiCG:  Solving for T, Initial residual = 5.31242e-05, Final residual = 1.42825e-20, No Iterations 1
Time = 0.0437

DILUPBiCG:  Solving for T, Initial residual = 5.28509e-05, Final residual = 1.51177e-20, No Iterations 1
Time = 0.0438

DILUPBiCG:  Solving for T, Initial residual = 5.25793e-05, Final residual = 1.66693e-20, No Iterations 1
Time = 0.0439

DILUPBiCG:  Solving for T, Initial residual = 5.23093e-05, Final residual = 2.55802e-20, No Iterations 1
Time = 0.044

DILUPBiCG:  Solving for T, Initial residual = 5.20411e-05, Final residual = 2.43979e-20, No Iterations 1
Time = 0.0441

DILUPBiCG:  Solving for T, Initial residual = 5.17746e-05, Final residual = 4.57239e-20, No Iterations 1
Time = 0.0442

DILUPBiCG:  Solving for T, Initial residual = 5.15097e-05, Final residual = 1.62762e-20, No Iterations 1
Time = 0.0443

DILUPBiCG:  Solving for T, Initial residual = 5.12464e-05, Final residual = 3.92045e-20, No Iterations 1
Time = 0.0444

DILUPBiCG:  Solving for T, Initial residual = 5.09848e-05, Final residual = 4.47818e-20, No Iterations 1
Time = 0.0445

DILUPBiCG:  Solving for T, Initial residual = 5.07248e-05, Final residual = 3.35823e-20, No Iterations 1
Time = 0.0446

DILUPBiCG:  Solving for T, Initial residual = 5.04664e-05, Final residual = 5.86934e-20, No Iterations 1
Time = 0.0447

DILUPBiCG:  Solving for T, Initial residual = 5.02096e-05, Final residual = 7.40315e-20, No Iterations 1
Time = 0.0448

DILUPBiCG:  Solving for T, Initial residual = 4.99544e-05, Final residual = 1.80278e-20, No Iterations 1
Time = 0.0449

DILUPBiCG:  Solving for T, Initial residual = 4.97007e-05, Final residual = 6.45124e-20, No Iterations 1
Time = 0.045

DILUPBiCG:  Solving for T, Initial residual = 4.94487e-05, Final residual = 1.60246e-20, No Iterations 1
Time = 0.0451

DILUPBiCG:  Solving for T, Initial residual = 4.91981e-05, Final residual = 1.60885e-20, No Iterations 1
Time = 0.0452

DILUPBiCG:  Solving for T, Initial residual = 4.89491e-05, Final residual = 2.32724e-20, No Iterations 1
Time = 0.0453

DILUPBiCG:  Solving for T, Initial residual = 4.87017e-05, Final residual = 6.39311e-20, No Iterations 1
Time = 0.0454

DILUPBiCG:  Solving for T, Initial residual = 4.84557e-05, Final residual = 5.20496e-20, No Iterations 1
Time = 0.0455

DILUPBiCG:  Solving for T, Initial residual = 4.82112e-05, Final residual = 1.42231e-20, No Iterations 1
Time = 0.0456

DILUPBiCG:  Solving for T, Initial residual = 4.79683e-05, Final residual = 4.10283e-20, No Iterations 1
Time = 0.0457

DILUPBiCG:  Solving for T, Initial residual = 4.77268e-05, Final residual = 4.15379e-20, No Iterations 1
Time = 0.0458

DILUPBiCG:  Solving for T, Initial residual = 4.74868e-05, Final residual = 3.19204e-20, No Iterations 1
Time = 0.0459

DILUPBiCG:  Solving for T, Initial residual = 4.72482e-05, Final residual = 3.94001e-20, No Iterations 1
Time = 0.046

DILUPBiCG:  Solving for T, Initial residual = 4.7011e-05, Final residual = 3.1747e-20, No Iterations 1
Time = 0.0461

DILUPBiCG:  Solving for T, Initial residual = 4.67753e-05, Final residual = 2.06627e-20, No Iterations 1
Time = 0.0462

DILUPBiCG:  Solving for T, Initial residual = 4.65409e-05, Final residual = 8.92046e-20, No Iterations 1
Time = 0.0463

DILUPBiCG:  Solving for T, Initial residual = 4.6308e-05, Final residual = 4.9937e-20, No Iterations 1
Time = 0.0464

DILUPBiCG:  Solving for T, Initial residual = 4.60765e-05, Final residual = 4.7845e-20, No Iterations 1
Time = 0.0465

DILUPBiCG:  Solving for T, Initial residual = 4.58464e-05, Final residual = 4.99647e-20, No Iterations 1
Time = 0.0466

DILUPBiCG:  Solving for T, Initial residual = 4.56177e-05, Final residual = 3.38779e-20, No Iterations 1
Time = 0.0467

DILUPBiCG:  Solving for T, Initial residual = 4.53903e-05, Final residual = 2.06723e-20, No Iterations 1
Time = 0.0468

DILUPBiCG:  Solving for T, Initial residual = 4.51643e-05, Final residual = 1.37362e-20, No Iterations 1
Time = 0.0469

DILUPBiCG:  Solving for T, Initial residual = 4.49397e-05, Final residual = 6.0304e-20, No Iterations 1
Time = 0.047

DILUPBiCG:  Solving for T, Initial residual = 4.47163e-05, Final residual = 1.66368e-20, No Iterations 1
Time = 0.0471

DILUPBiCG:  Solving for T, Initial residual = 4.44944e-05, Final residual = 2.96235e-20, No Iterations 1
Time = 0.0472

DILUPBiCG:  Solving for T, Initial residual = 4.42737e-05, Final residual = 1.28272e-20, No Iterations 1
Time = 0.0473

DILUPBiCG:  Solving for T, Initial residual = 4.40544e-05, Final residual = 1.66623e-20, No Iterations 1
Time = 0.0474

DILUPBiCG:  Solving for T, Initial residual = 4.38364e-05, Final residual = 2.60944e-20, No Iterations 1
Time = 0.0475

DILUPBiCG:  Solving for T, Initial residual = 4.36196e-05, Final residual = 4.62379e-20, No Iterations 1
Time = 0.0476

DILUPBiCG:  Solving for T, Initial residual = 4.34042e-05, Final residual = 8.39938e-20, No Iterations 1
Time = 0.0477

DILUPBiCG:  Solving for T, Initial residual = 4.319e-05, Final residual = 1.78788e-20, No Iterations 1
Time = 0.0478

DILUPBiCG:  Solving for T, Initial residual = 4.29771e-05, Final residual = 2.50985e-20, No Iterations 1
Time = 0.0479

DILUPBiCG:  Solving for T, Initial residual = 4.27654e-05, Final residual = 1.85755e-20, No Iterations 1
Time = 0.048

DILUPBiCG:  Solving for T, Initial residual = 4.2555e-05, Final residual = 1.21437e-20, No Iterations 1
Time = 0.0481

DILUPBiCG:  Solving for T, Initial residual = 4.23459e-05, Final residual = 1.73968e-20, No Iterations 1
Time = 0.0482

DILUPBiCG:  Solving for T, Initial residual = 4.21379e-05, Final residual = 2.55573e-20, No Iterations 1
Time = 0.0483

DILUPBiCG:  Solving for T, Initial residual = 4.19312e-05, Final residual = 1.74805e-20, No Iterations 1
Time = 0.0484

DILUPBiCG:  Solving for T, Initial residual = 4.17257e-05, Final residual = 1.36764e-20, No Iterations 1
Time = 0.0485

DILUPBiCG:  Solving for T, Initial residual = 4.15214e-05, Final residual = 6.28909e-20, No Iterations 1
Time = 0.0486

DILUPBiCG:  Solving for T, Initial residual = 4.13183e-05, Final residual = 6.36823e-20, No Iterations 1
Time = 0.0487

DILUPBiCG:  Solving for T, Initial residual = 4.11164e-05, Final residual = 2.64772e-20, No Iterations 1
Time = 0.0488

DILUPBiCG:  Solving for T, Initial residual = 4.09157e-05, Final residual = 1.25471e-20, No Iterations 1
Time = 0.0489

DILUPBiCG:  Solving for T, Initial residual = 4.07161e-05, Final residual = 3.04103e-20, No Iterations 1
Time = 0.049

DILUPBiCG:  Solving for T, Initial residual = 4.05177e-05, Final residual = 2.22176e-20, No Iterations 1
Time = 0.0491

DILUPBiCG:  Solving for T, Initial residual = 4.03205e-05, Final residual = 9.71736e-21, No Iterations 1
Time = 0.0492

DILUPBiCG:  Solving for T, Initial residual = 4.01243e-05, Final residual = 8.01741e-20, No Iterations 1
Time = 0.0493

DILUPBiCG:  Solving for T, Initial residual = 3.99294e-05, Final residual = 3.5506e-20, No Iterations 1
Time = 0.0494

DILUPBiCG:  Solving for T, Initial residual = 3.97355e-05, Final residual = 2.47112e-20, No Iterations 1
Time = 0.0495

DILUPBiCG:  Solving for T, Initial residual = 3.95428e-05, Final residual = 1.58319e-20, No Iterations 1
Time = 0.0496

DILUPBiCG:  Solving for T, Initial residual = 3.93512e-05, Final residual = 7.86778e-20, No Iterations 1
Time = 0.0497

DILUPBiCG:  Solving for T, Initial residual = 3.91607e-05, Final residual = 3.98126e-20, No Iterations 1
Time = 0.0498

DILUPBiCG:  Solving for T, Initial residual = 3.89713e-05, Final residual = 2.40327e-20, No Iterations 1
Time = 0.0499

DILUPBiCG:  Solving for T, Initial residual = 3.8783e-05, Final residual = 1.31786e-20, No Iterations 1
Time = 0.05

DILUPBiCG:  Solving for T, Initial residual = 3.85957e-05, Final residual = 2.45634e-20, No Iterations 1
Time = 0.0501

DILUPBiCG:  Solving for T, Initial residual = 3.84096e-05, Final residual = 2.59268e-20, No Iterations 1
Time = 0.0502

DILUPBiCG:  Solving for T, Initial residual = 3.82245e-05, Final residual = 4.20816e-20, No Iterations 1
Time = 0.0503

DILUPBiCG:  Solving for T, Initial residual = 3.80404e-05, Final residual = 5.15864e-20, No Iterations 1
Time = 0.0504

DILUPBiCG:  Solving for T, Initial residual = 3.78575e-05, Final residual = 5.83407e-20, No Iterations 1
Time = 0.0505

DILUPBiCG:  Solving for T, Initial residual = 3.76755e-05, Final residual = 3.25482e-20, No Iterations 1
Time = 0.0506

DILUPBiCG:  Solving for T, Initial residual = 3.74946e-05, Final residual = 1.11981e-20, No Iterations 1
Time = 0.0507

DILUPBiCG:  Solving for T, Initial residual = 3.73147e-05, Final residual = 2.98939e-20, No Iterations 1
Time = 0.0508

DILUPBiCG:  Solving for T, Initial residual = 3.71359e-05, Final residual = 9.06386e-20, No Iterations 1
Time = 0.0509

DILUPBiCG:  Solving for T, Initial residual = 3.69581e-05, Final residual = 1.02082e-20, No Iterations 1
Time = 0.051

DILUPBiCG:  Solving for T, Initial residual = 3.67812e-05, Final residual = 2.54246e-20, No Iterations 1
Time = 0.0511

DILUPBiCG:  Solving for T, Initial residual = 3.66054e-05, Final residual = 4.80964e-20, No Iterations 1
Time = 0.0512

DILUPBiCG:  Solving for T, Initial residual = 3.64306e-05, Final residual = 7.14272e-21, No Iterations 1
Time = 0.0513

DILUPBiCG:  Solving for T, Initial residual = 3.62568e-05, Final residual = 4.407e-20, No Iterations 1
Time = 0.0514

DILUPBiCG:  Solving for T, Initial residual = 3.60839e-05, Final residual = 5.6022e-20, No Iterations 1
Time = 0.0515

DILUPBiCG:  Solving for T, Initial residual = 3.5912e-05, Final residual = 2.34113e-20, No Iterations 1
Time = 0.0516

DILUPBiCG:  Solving for T, Initial residual = 3.57411e-05, Final residual = 1.50396e-20, No Iterations 1
Time = 0.0517

DILUPBiCG:  Solving for T, Initial residual = 3.55712e-05, Final residual = 4.00448e-20, No Iterations 1
Time = 0.0518

DILUPBiCG:  Solving for T, Initial residual = 3.54022e-05, Final residual = 6.77921e-20, No Iterations 1
Time = 0.0519

DILUPBiCG:  Solving for T, Initial residual = 3.52341e-05, Final residual = 1.17631e-20, No Iterations 1
Time = 0.052

DILUPBiCG:  Solving for T, Initial residual = 3.5067e-05, Final residual = 1.54695e-20, No Iterations 1
Time = 0.0521

DILUPBiCG:  Solving for T, Initial residual = 3.49008e-05, Final residual = 2.24867e-20, No Iterations 1
Time = 0.0522

DILUPBiCG:  Solving for T, Initial residual = 3.47356e-05, Final residual = 1.67494e-20, No Iterations 1
Time = 0.0523

DILUPBiCG:  Solving for T, Initial residual = 3.45713e-05, Final residual = 4.47366e-20, No Iterations 1
Time = 0.0524

DILUPBiCG:  Solving for T, Initial residual = 3.44079e-05, Final residual = 3.92092e-20, No Iterations 1
Time = 0.0525

DILUPBiCG:  Solving for T, Initial residual = 3.42454e-05, Final residual = 2.958e-20, No Iterations 1
Time = 0.0526

DILUPBiCG:  Solving for T, Initial residual = 3.40838e-05, Final residual = 1.08024e-20, No Iterations 1
Time = 0.0527

DILUPBiCG:  Solving for T, Initial residual = 3.39231e-05, Final residual = 7.96323e-21, No Iterations 1
Time = 0.0528

DILUPBiCG:  Solving for T, Initial residual = 3.37633e-05, Final residual = 1.68482e-20, No Iterations 1
Time = 0.0529

DILUPBiCG:  Solving for T, Initial residual = 3.36044e-05, Final residual = 2.68325e-20, No Iterations 1
Time = 0.053

DILUPBiCG:  Solving for T, Initial residual = 3.34464e-05, Final residual = 1.49071e-20, No Iterations 1
Time = 0.0531

DILUPBiCG:  Solving for T, Initial residual = 3.32892e-05, Final residual = 2.91319e-20, No Iterations 1
Time = 0.0532

DILUPBiCG:  Solving for T, Initial residual = 3.31329e-05, Final residual = 1.43523e-20, No Iterations 1
Time = 0.0533

DILUPBiCG:  Solving for T, Initial residual = 3.29775e-05, Final residual = 1.02052e-20, No Iterations 1
Time = 0.0534

DILUPBiCG:  Solving for T, Initial residual = 3.28229e-05, Final residual = 3.88555e-20, No Iterations 1
Time = 0.0535

DILUPBiCG:  Solving for T, Initial residual = 3.26692e-05, Final residual = 1.55039e-20, No Iterations 1
Time = 0.0536

DILUPBiCG:  Solving for T, Initial residual = 3.25164e-05, Final residual = 2.14023e-20, No Iterations 1
Time = 0.0537

DILUPBiCG:  Solving for T, Initial residual = 3.23643e-05, Final residual = 1.44604e-20, No Iterations 1
Time = 0.0538

DILUPBiCG:  Solving for T, Initial residual = 3.22131e-05, Final residual = 1.56482e-20, No Iterations 1
Time = 0.0539

DILUPBiCG:  Solving for T, Initial residual = 3.20628e-05, Final residual = 7.53157e-21, No Iterations 1
Time = 0.054

DILUPBiCG:  Solving for T, Initial residual = 3.19132e-05, Final residual = 1.52708e-20, No Iterations 1
Time = 0.0541

DILUPBiCG:  Solving for T, Initial residual = 3.17645e-05, Final residual = 1.49133e-20, No Iterations 1
Time = 0.0542

DILUPBiCG:  Solving for T, Initial residual = 3.16166e-05, Final residual = 1.18595e-20, No Iterations 1
Time = 0.0543

DILUPBiCG:  Solving for T, Initial residual = 3.14695e-05, Final residual = 1.43262e-20, No Iterations 1
Time = 0.0544

DILUPBiCG:  Solving for T, Initial residual = 3.13232e-05, Final residual = 1.0679e-20, No Iterations 1
Time = 0.0545

DILUPBiCG:  Solving for T, Initial residual = 3.11777e-05, Final residual = 2.59712e-20, No Iterations 1
Time = 0.0546

DILUPBiCG:  Solving for T, Initial residual = 3.1033e-05, Final residual = 1.23902e-20, No Iterations 1
Time = 0.0547

DILUPBiCG:  Solving for T, Initial residual = 3.0889e-05, Final residual = 1.4167e-20, No Iterations 1
Time = 0.0548

DILUPBiCG:  Solving for T, Initial residual = 3.07459e-05, Final residual = 1.17626e-20, No Iterations 1
Time = 0.0549

DILUPBiCG:  Solving for T, Initial residual = 3.06035e-05, Final residual = 1.63576e-20, No Iterations 1
Time = 0.055

DILUPBiCG:  Solving for T, Initial residual = 3.04619e-05, Final residual = 1.79634e-20, No Iterations 1
Time = 0.0551

DILUPBiCG:  Solving for T, Initial residual = 3.0321e-05, Final residual = 1.04079e-20, No Iterations 1
Time = 0.0552

DILUPBiCG:  Solving for T, Initial residual = 3.01809e-05, Final residual = 9.83907e-21, No Iterations 1
Time = 0.0553

DILUPBiCG:  Solving for T, Initial residual = 3.00416e-05, Final residual = 1.03486e-20, No Iterations 1
Time = 0.0554

DILUPBiCG:  Solving for T, Initial residual = 2.9903e-05, Final residual = 1.48e-20, No Iterations 1
Time = 0.0555

DILUPBiCG:  Solving for T, Initial residual = 2.97651e-05, Final residual = 1.86405e-20, No Iterations 1
Time = 0.0556

DILUPBiCG:  Solving for T, Initial residual = 2.9628e-05, Final residual = 1.81203e-20, No Iterations 1
Time = 0.0557

DILUPBiCG:  Solving for T, Initial residual = 2.94917e-05, Final residual = 1.02644e-20, No Iterations 1
Time = 0.0558

DILUPBiCG:  Solving for T, Initial residual = 2.9356e-05, Final residual = 1.83404e-20, No Iterations 1
Time = 0.0559

DILUPBiCG:  Solving for T, Initial residual = 2.92211e-05, Final residual = 7.36623e-21, No Iterations 1
Time = 0.056

DILUPBiCG:  Solving for T, Initial residual = 2.90869e-05, Final residual = 2.03203e-20, No Iterations 1
Time = 0.0561

DILUPBiCG:  Solving for T, Initial residual = 2.89535e-05, Final residual = 1.79549e-20, No Iterations 1
Time = 0.0562

DILUPBiCG:  Solving for T, Initial residual = 2.88207e-05, Final residual = 7.57746e-21, No Iterations 1
Time = 0.0563

DILUPBiCG:  Solving for T, Initial residual = 2.86887e-05, Final residual = 1.36916e-20, No Iterations 1
Time = 0.0564

DILUPBiCG:  Solving for T, Initial residual = 2.85574e-05, Final residual = 1.15827e-20, No Iterations 1
Time = 0.0565

DILUPBiCG:  Solving for T, Initial residual = 2.84267e-05, Final residual = 1.24262e-20, No Iterations 1
Time = 0.0566

DILUPBiCG:  Solving for T, Initial residual = 2.82968e-05, Final residual = 1.31769e-20, No Iterations 1
Time = 0.0567

DILUPBiCG:  Solving for T, Initial residual = 2.81675e-05, Final residual = 1.05873e-20, No Iterations 1
Time = 0.0568

DILUPBiCG:  Solving for T, Initial residual = 2.8039e-05, Final residual = 1.90545e-20, No Iterations 1
Time = 0.0569

DILUPBiCG:  Solving for T, Initial residual = 2.79111e-05, Final residual = 1.19861e-20, No Iterations 1
Time = 0.057

DILUPBiCG:  Solving for T, Initial residual = 2.77839e-05, Final residual = 4.38038e-20, No Iterations 1
Time = 0.0571

DILUPBiCG:  Solving for T, Initial residual = 2.76574e-05, Final residual = 1.07008e-20, No Iterations 1
Time = 0.0572

DILUPBiCG:  Solving for T, Initial residual = 2.75315e-05, Final residual = 2.58725e-20, No Iterations 1
Time = 0.0573

DILUPBiCG:  Solving for T, Initial residual = 2.74063e-05, Final residual = 2.47604e-20, No Iterations 1
Time = 0.0574

DILUPBiCG:  Solving for T, Initial residual = 2.72818e-05, Final residual = 2.48795e-20, No Iterations 1
Time = 0.0575

DILUPBiCG:  Solving for T, Initial residual = 2.71579e-05, Final residual = 7.66864e-21, No Iterations 1
Time = 0.0576

DILUPBiCG:  Solving for T, Initial residual = 2.70347e-05, Final residual = 8.30476e-21, No Iterations 1
Time = 0.0577

DILUPBiCG:  Solving for T, Initial residual = 2.69122e-05, Final residual = 3.73895e-20, No Iterations 1
Time = 0.0578

DILUPBiCG:  Solving for T, Initial residual = 2.67902e-05, Final residual = 2.38009e-20, No Iterations 1
Time = 0.0579

DILUPBiCG:  Solving for T, Initial residual = 2.6669e-05, Final residual = 6.05938e-20, No Iterations 1
Time = 0.058

DILUPBiCG:  Solving for T, Initial residual = 2.65483e-05, Final residual = 8.36492e-21, No Iterations 1
Time = 0.0581

DILUPBiCG:  Solving for T, Initial residual = 2.64283e-05, Final residual = 9.92381e-21, No Iterations 1
Time = 0.0582

DILUPBiCG:  Solving for T, Initial residual = 2.63089e-05, Final residual = 2.20754e-20, No Iterations 1
Time = 0.0583

DILUPBiCG:  Solving for T, Initial residual = 2.61902e-05, Final residual = 1.39178e-20, No Iterations 1
Time = 0.0584

DILUPBiCG:  Solving for T, Initial residual = 2.6072e-05, Final residual = 1.13557e-20, No Iterations 1
Time = 0.0585

DILUPBiCG:  Solving for T, Initial residual = 2.59545e-05, Final residual = 1.14276e-20, No Iterations 1
Time = 0.0586

DILUPBiCG:  Solving for T, Initial residual = 2.58376e-05, Final residual = 2.30256e-20, No Iterations 1
Time = 0.0587

DILUPBiCG:  Solving for T, Initial residual = 2.57213e-05, Final residual = 8.888e-21, No Iterations 1
Time = 0.0588

DILUPBiCG:  Solving for T, Initial residual = 2.56056e-05, Final residual = 9.15465e-21, No Iterations 1
Time = 0.0589

DILUPBiCG:  Solving for T, Initial residual = 2.54905e-05, Final residual = 6.34821e-21, No Iterations 1
Time = 0.059

DILUPBiCG:  Solving for T, Initial residual = 2.5376e-05, Final residual = 2.22374e-20, No Iterations 1
Time = 0.0591

DILUPBiCG:  Solving for T, Initial residual = 2.52621e-05, Final residual = 1.11725e-20, No Iterations 1
Time = 0.0592

DILUPBiCG:  Solving for T, Initial residual = 2.51488e-05, Final residual = 1.46954e-20, No Iterations 1
Time = 0.0593

DILUPBiCG:  Solving for T, Initial residual = 2.50361e-05, Final residual = 2.15936e-20, No Iterations 1
Time = 0.0594

DILUPBiCG:  Solving for T, Initial residual = 2.4924e-05, Final residual = 2.0812e-20, No Iterations 1
Time = 0.0595

DILUPBiCG:  Solving for T, Initial residual = 2.48124e-05, Final residual = 3.73091e-20, No Iterations 1
Time = 0.0596

DILUPBiCG:  Solving for T, Initial residual = 2.47015e-05, Final residual = 1.70093e-20, No Iterations 1
Time = 0.0597

DILUPBiCG:  Solving for T, Initial residual = 2.45911e-05, Final residual = 2.11248e-20, No Iterations 1
Time = 0.0598

DILUPBiCG:  Solving for T, Initial residual = 2.44812e-05, Final residual = 1.29027e-20, No Iterations 1
Time = 0.0599

DILUPBiCG:  Solving for T, Initial residual = 2.4372e-05, Final residual = 2.19871e-20, No Iterations 1
Time = 0.06

DILUPBiCG:  Solving for T, Initial residual = 2.42633e-05, Final residual = 2.2953e-20, No Iterations 1
Time = 0.0601

DILUPBiCG:  Solving for T, Initial residual = 2.41551e-05, Final residual = 3.56327e-20, No Iterations 1
Time = 0.0602

DILUPBiCG:  Solving for T, Initial residual = 2.40475e-05, Final residual = 2.01194e-20, No Iterations 1
Time = 0.0603

DILUPBiCG:  Solving for T, Initial residual = 2.39405e-05, Final residual = 1.20168e-20, No Iterations 1
Time = 0.0604

DILUPBiCG:  Solving for T, Initial residual = 2.3834e-05, Final residual = 8.22931e-21, No Iterations 1
Time = 0.0605

DILUPBiCG:  Solving for T, Initial residual = 2.37281e-05, Final residual = 2.7208e-20, No Iterations 1
Time = 0.0606

DILUPBiCG:  Solving for T, Initial residual = 2.36227e-05, Final residual = 2.51635e-20, No Iterations 1
Time = 0.0607

DILUPBiCG:  Solving for T, Initial residual = 2.35178e-05, Final residual = 5.2954e-20, No Iterations 1
Time = 0.0608

DILUPBiCG:  Solving for T, Initial residual = 2.34135e-05, Final residual = 2.26556e-20, No Iterations 1
Time = 0.0609

DILUPBiCG:  Solving for T, Initial residual = 2.33097e-05, Final residual = 1.05468e-20, No Iterations 1
Time = 0.061

DILUPBiCG:  Solving for T, Initial residual = 2.32064e-05, Final residual = 1.55279e-20, No Iterations 1
Time = 0.0611

DILUPBiCG:  Solving for T, Initial residual = 2.31037e-05, Final residual = 7.41278e-21, No Iterations 1
Time = 0.0612

DILUPBiCG:  Solving for T, Initial residual = 2.30015e-05, Final residual = 8.24035e-21, No Iterations 1
Time = 0.0613

DILUPBiCG:  Solving for T, Initial residual = 2.28998e-05, Final residual = 6.79395e-21, No Iterations 1
Time = 0.0614

DILUPBiCG:  Solving for T, Initial residual = 2.27986e-05, Final residual = 1.51108e-20, No Iterations 1
Time = 0.0615

DILUPBiCG:  Solving for T, Initial residual = 2.26979e-05, Final residual = 1.94623e-20, No Iterations 1
Time = 0.0616

DILUPBiCG:  Solving for T, Initial residual = 2.25978e-05, Final residual = 2.72689e-20, No Iterations 1
Time = 0.0617

DILUPBiCG:  Solving for T, Initial residual = 2.24982e-05, Final residual = 7.677e-21, No Iterations 1
Time = 0.0618

DILUPBiCG:  Solving for T, Initial residual = 2.2399e-05, Final residual = 2.54076e-20, No Iterations 1
Time = 0.0619

DILUPBiCG:  Solving for T, Initial residual = 2.23004e-05, Final residual = 1.80704e-20, No Iterations 1
Time = 0.062

DILUPBiCG:  Solving for T, Initial residual = 2.22022e-05, Final residual = 7.0372e-21, No Iterations 1
Time = 0.0621

DILUPBiCG:  Solving for T, Initial residual = 2.21046e-05, Final residual = 1.10087e-20, No Iterations 1
Time = 0.0622

DILUPBiCG:  Solving for T, Initial residual = 2.20075e-05, Final residual = 1.14912e-20, No Iterations 1
Time = 0.0623

DILUPBiCG:  Solving for T, Initial residual = 2.19108e-05, Final residual = 5.90775e-21, No Iterations 1
Time = 0.0624

DILUPBiCG:  Solving for T, Initial residual = 2.18146e-05, Final residual = 2.3667e-20, No Iterations 1
Time = 0.0625

DILUPBiCG:  Solving for T, Initial residual = 2.17189e-05, Final residual = 1.91176e-20, No Iterations 1
Time = 0.0626

DILUPBiCG:  Solving for T, Initial residual = 2.16237e-05, Final residual = 9.88818e-21, No Iterations 1
Time = 0.0627

DILUPBiCG:  Solving for T, Initial residual = 2.1529e-05, Final residual = 1.96796e-20, No Iterations 1
Time = 0.0628

DILUPBiCG:  Solving for T, Initial residual = 2.14347e-05, Final residual = 8.9479e-21, No Iterations 1
Time = 0.0629

DILUPBiCG:  Solving for T, Initial residual = 2.1341e-05, Final residual = 3.74595e-20, No Iterations 1
Time = 0.063

DILUPBiCG:  Solving for T, Initial residual = 2.12476e-05, Final residual = 8.88009e-21, No Iterations 1
Time = 0.0631

DILUPBiCG:  Solving for T, Initial residual = 2.11548e-05, Final residual = 5.86918e-21, No Iterations 1
Time = 0.0632

DILUPBiCG:  Solving for T, Initial residual = 2.10624e-05, Final residual = 1.64137e-20, No Iterations 1
Time = 0.0633

DILUPBiCG:  Solving for T, Initial residual = 2.09705e-05, Final residual = 2.31197e-20, No Iterations 1
Time = 0.0634

DILUPBiCG:  Solving for T, Initial residual = 2.0879e-05, Final residual = 1.19878e-20, No Iterations 1
Time = 0.0635

DILUPBiCG:  Solving for T, Initial residual = 2.0788e-05, Final residual = 2.10721e-20, No Iterations 1
Time = 0.0636

DILUPBiCG:  Solving for T, Initial residual = 2.06975e-05, Final residual = 1.64907e-20, No Iterations 1
Time = 0.0637

DILUPBiCG:  Solving for T, Initial residual = 2.06074e-05, Final residual = 1.39841e-20, No Iterations 1
Time = 0.0638

DILUPBiCG:  Solving for T, Initial residual = 2.05177e-05, Final residual = 1.30393e-20, No Iterations 1
Time = 0.0639

DILUPBiCG:  Solving for T, Initial residual = 2.04285e-05, Final residual = 7.03331e-21, No Iterations 1
Time = 0.064

DILUPBiCG:  Solving for T, Initial residual = 2.03398e-05, Final residual = 6.34447e-21, No Iterations 1
Time = 0.0641

DILUPBiCG:  Solving for T, Initial residual = 2.02515e-05, Final residual = 1.1764e-20, No Iterations 1
Time = 0.0642

DILUPBiCG:  Solving for T, Initial residual = 2.01636e-05, Final residual = 3.89371e-20, No Iterations 1
Time = 0.0643

DILUPBiCG:  Solving for T, Initial residual = 2.00761e-05, Final residual = 1.43266e-20, No Iterations 1
Time = 0.0644

DILUPBiCG:  Solving for T, Initial residual = 1.99891e-05, Final residual = 6.30087e-21, No Iterations 1
Time = 0.0645

DILUPBiCG:  Solving for T, Initial residual = 1.99025e-05, Final residual = 6.2663e-21, No Iterations 1
Time = 0.0646

DILUPBiCG:  Solving for T, Initial residual = 1.98164e-05, Final residual = 4.90008e-21, No Iterations 1
Time = 0.0647

DILUPBiCG:  Solving for T, Initial residual = 1.97306e-05, Final residual = 5.69263e-21, No Iterations 1
Time = 0.0648

DILUPBiCG:  Solving for T, Initial residual = 1.96453e-05, Final residual = 6.04736e-21, No Iterations 1
Time = 0.0649

DILUPBiCG:  Solving for T, Initial residual = 1.95604e-05, Final residual = 2.16265e-20, No Iterations 1
Time = 0.065

DILUPBiCG:  Solving for T, Initial residual = 1.9476e-05, Final residual = 1.17084e-20, No Iterations 1
Time = 0.0651

DILUPBiCG:  Solving for T, Initial residual = 1.93919e-05, Final residual = 9.27696e-21, No Iterations 1
Time = 0.0652

DILUPBiCG:  Solving for T, Initial residual = 1.93083e-05, Final residual = 8.74681e-21, No Iterations 1
Time = 0.0653

DILUPBiCG:  Solving for T, Initial residual = 1.92251e-05, Final residual = 1.15844e-20, No Iterations 1
Time = 0.0654

DILUPBiCG:  Solving for T, Initial residual = 1.91422e-05, Final residual = 2.35278e-20, No Iterations 1
Time = 0.0655

DILUPBiCG:  Solving for T, Initial residual = 1.90598e-05, Final residual = 4.98586e-21, No Iterations 1
Time = 0.0656

DILUPBiCG:  Solving for T, Initial residual = 1.89778e-05, Final residual = 6.61823e-21, No Iterations 1
Time = 0.0657

DILUPBiCG:  Solving for T, Initial residual = 1.88962e-05, Final residual = 4.89766e-21, No Iterations 1
Time = 0.0658

[...]
Time = 0.9835

DILUPBiCG:  Solving for T, Initial residual = 9.99489e-07, Final residual = 9.99489e-07, No Iterations 0
Time = 0.9836

DILUPBiCG:  Solving for T, Initial residual = 9.99489e-07, Final residual = 9.99489e-07, No Iterations 0
Time = 0.9837

DILUPBiCG:  Solving for T, Initial residual = 9.99489e-07, Final residual = 9.99489e-07, No Iterations 0
Time = 0.9838

DILUPBiCG:  Solving for T, Initial residual = 9.99489e-07, Final residual = 9.99489e-07, No Iterations 0
Time = 0.9839

DILUPBiCG:  Solving for T, Initial residual = 9.99489e-07, Final residual = 9.99489e-07, No Iterations 0
Time = 0.984

DILUPBiCG:  Solving for T, Initial residual = 9.99489e-07, Final residual = 9.99489e-07, No Iterations 0
Time = 0.9841

DILUPBiCG:  Solving for T, Initial residual = 9.99489e-07, Final residual = 9.99489e-07, No Iterations 0
Time = 0.9842

DILUPBiCG:  Solving for T, Initial residual = 9.99489e-07, Final residual = 9.99489e-07, No Iterations 0
Time = 0.9843

DILUPBiCG:  Solving for T, Initial residual = 9.99489e-07, Final residual = 9.99489e-07, No Iterations 0
Time = 0.9844

DILUPBiCG:  Solving for T, Initial residual = 9.99489e-07, Final residual = 9.99489e-07, No Iterations 0
Time = 0.9845

DILUPBiCG:  Solving for T, Initial residual = 9.99489e-07, Final residual = 9.99489e-07, No Iterations 0
Time = 0.9846

DILUPBiCG:  Solving for T, Initial residual = 9.99489e-07, Final residual = 9.99489e-07, No Iterations 0
Time = 0.9847

DILUPBiCG:  Solving for T, Initial residual = 9.99489e-07, Final residual = 9.99489e-07, No Iterations 0
Time = 0.9848

DILUPBiCG:  Solving for T, Initial residual = 9.99489e-07, Final residual = 9.99489e-07, No Iterations 0
Time = 0.9849

DILUPBiCG:  Solving for T, Initial residual = 9.99489e-07, Final residual = 9.99489e-07, No Iterations 0
Time = 0.985

DILUPBiCG:  Solving for T, Initial residual = 9.99489e-07, Final residual = 9.99489e-07, No Iterations 0
Time = 0.9851

DILUPBiCG:  Solving for T, Initial residual = 9.99489e-07, Final residual = 9.99489e-07, No Iterations 0
Time = 0.9852

DILUPBiCG:  Solving for T, Initial residual = 9.99489e-07, Final residual = 9.99489e-07, No Iterations 0
Time = 0.9853

DILUPBiCG:  Solving for T, Initial residual = 9.99489e-07, Final residual = 9.99489e-07, No Iterations 0
Time = 0.9854

DILUPBiCG:  Solving for T, Initial residual = 9.99489e-07, Final residual = 9.99489e-07, No Iterations 0
Time = 0.9855

DILUPBiCG:  Solving for T, Initial residual = 9.99489e-07, Final residual = 9.99489e-07, No Iterations 0
Time = 0.9856

DILUPBiCG:  Solving for T, Initial residual = 9.99489e-07, Final residual = 9.99489e-07, No Iterations 0
Time = 0.9857

DILUPBiCG:  Solving for T, Initial residual = 9.99489e-07, Final residual = 9.99489e-07, No Iterations 0
Time = 0.9858

DILUPBiCG:  Solving for T, Initial residual = 9.99489e-07, Final residual = 9.99489e-07, No Iterations 0
Time = 0.9859

DILUPBiCG:  Solving for T, Initial residual = 9.99489e-07, Final residual = 9.99489e-07, No Iterations 0
Time = 0.986

DILUPBiCG:  Solving for T, Initial residual = 9.99489e-07, Final residual = 9.99489e-07, No Iterations 0
Time = 0.9861

DILUPBiCG:  Solving for T, Initial residual = 9.99489e-07, Final residual = 9.99489e-07, No Iterations 0
Time = 0.9862

DILUPBiCG:  Solving for T, Initial residual = 9.99489e-07, Final residual = 9.99489e-07, No Iterations 0
Time = 0.9863

DILUPBiCG:  Solving for T, Initial residual = 9.99489e-07, Final residual = 9.99489e-07, No Iterations 0
Time = 0.9864

DILUPBiCG:  Solving for T, Initial residual = 9.99489e-07, Final residual = 9.99489e-07, No Iterations 0
Time = 0.9865

DILUPBiCG:  Solving for T, Initial residual = 9.99489e-07, Final residual = 9.99489e-07, No Iterations 0
Time = 0.9866

DILUPBiCG:  Solving for T, Initial residual = 9.99489e-07, Final residual = 9.99489e-07, No Iterations 0
Time = 0.9867

DILUPBiCG:  Solving for T, Initial residual = 9.99489e-07, Final residual = 9.99489e-07, No Iterations 0
Time = 0.9868

DILUPBiCG:  Solving for T, Initial residual = 9.99489e-07, Final residual = 9.99489e-07, No Iterations 0
Time = 0.9869

DILUPBiCG:  Solving for T, Initial residual = 9.99489e-07, Final residual = 9.99489e-07, No Iterations 0
Time = 0.987

DILUPBiCG:  Solving for T, Initial residual = 9.99489e-07, Final residual = 9.99489e-07, No Iterations 0
Time = 0.9871

DILUPBiCG:  Solving for T, Initial residual = 9.99489e-07, Final residual = 9.99489e-07, No Iterations 0
Time = 0.9872

DILUPBiCG:  Solving for T, Initial residual = 9.99489e-07, Final residual = 9.99489e-07, No Iterations 0
Time = 0.9873

DILUPBiCG:  Solving for T, Initial residual = 9.99489e-07, Final residual = 9.99489e-07, No Iterations 0
Time = 0.9874

DILUPBiCG:  Solving for T, Initial residual = 9.99489e-07, Final residual = 9.99489e-07, No Iterations 0
Time = 0.9875

DILUPBiCG:  Solving for T, Initial residual = 9.99489e-07, Final residual = 9.99489e-07, No Iterations 0
Time = 0.9876

DILUPBiCG:  Solving for T, Initial residual = 9.99489e-07, Final residual = 9.99489e-07, No Iterations 0
Time = 0.9877

DILUPBiCG:  Solving for T, Initial residual = 9.99489e-07, Final residual = 9.99489e-07, No Iterations 0
Time = 0.9878

DILUPBiCG:  Solving for T, Initial residual = 9.99489e-07, Final residual = 9.99489e-07, No Iterations 0
Time = 0.9879

DILUPBiCG:  Solving for T, Initial residual = 9.99489e-07, Final residual = 9.99489e-07, No Iterations 0
Time = 0.988

DILUPBiCG:  Solving for T, Initial residual = 9.99489e-07, Final residual = 9.99489e-07, No Iterations 0
Time = 0.9881

DILUPBiCG:  Solving for T, Initial residual = 9.99489e-07, Final residual = 9.99489e-07, No Iterations 0
Time = 0.9882

DILUPBiCG:  Solving for T, Initial residual = 9.99489e-07, Final residual = 9.99489e-07, No Iterations 0
Time = 0.9883

DILUPBiCG:  Solving for T, Initial residual = 9.99489e-07, Final residual = 9.99489e-07, No Iterations 0
Time = 0.9884

DILUPBiCG:  Solving for T, Initial residual = 9.99489e-07, Final residual = 9.99489e-07, No Iterations 0
Time = 0.9885

DILUPBiCG:  Solving for T, Initial residual = 9.99489e-07, Final residual = 9.99489e-07, No Iterations 0
Time = 0.9886

DILUPBiCG:  Solving for T, Initial residual = 9.99489e-07, Final residual = 9.99489e-07, No Iterations 0
Time = 0.9887

DILUPBiCG:  Solving for T, Initial residual = 9.99489e-07, Final residual = 9.99489e-07, No Iterations 0
Time = 0.9888

DILUPBiCG:  Solving for T, Initial residual = 9.99489e-07, Final residual = 9.99489e-07, No Iterations 0
Time = 0.9889

DILUPBiCG:  Solving for T, Initial residual = 9.99489e-07, Final residual = 9.99489e-07, No Iterations 0
Time = 0.989

DILUPBiCG:  Solving for T, Initial residual = 9.99489e-07, Final residual = 9.99489e-07, No Iterations 0
Time = 0.9891

DILUPBiCG:  Solving for T, Initial residual = 9.99489e-07, Final residual = 9.99489e-07, No Iterations 0
Time = 0.9892

DILUPBiCG:  Solving for T, Initial residual = 9.99489e-07, Final residual = 9.99489e-07, No Iterations 0
Time = 0.9893

DILUPBiCG:  Solving for T, Initial residual = 9.99489e-07, Final residual = 9.99489e-07, No Iterations 0
Time = 0.9894

DILUPBiCG:  Solving for T, Initial residual = 9.99489e-07, Final residual = 9.99489e-07, No Iterations 0
Time = 0.9895

DILUPBiCG:  Solving for T, Initial residual = 9.99489e-07, Final residual = 9.99489e-07, No Iterations 0
Time = 0.9896

DILUPBiCG:  Solving for T, Initial residual = 9.99489e-07, Final residual = 9.99489e-07, No Iterations 0
Time = 0.9897

DILUPBiCG:  Solving for T, Initial residual = 9.99489e-07, Final residual = 9.99489e-07, No Iterations 0
Time = 0.9898

DILUPBiCG:  Solving for T, Initial residual = 9.99489e-07, Final residual = 9.99489e-07, No Iterations 0
Time = 0.9899

DILUPBiCG:  Solving for T, Initial residual = 9.99489e-07, Final residual = 9.99489e-07, No Iterations 0
Time = 0.99

DILUPBiCG:  Solving for T, Initial residual = 9.99489e-07, Final residual = 9.99489e-07, No Iterations 0
Time = 0.9901

DILUPBiCG:  Solving for T, Initial residual = 9.99489e-07, Final residual = 9.99489e-07, No Iterations 0
Time = 0.9902

DILUPBiCG:  Solving for T, Initial residual = 9.99489e-07, Final residual = 9.99489e-07, No Iterations 0
Time = 0.9903

DILUPBiCG:  Solving for T, Initial residual = 9.99489e-07, Final residual = 9.99489e-07, No Iterations 0
Time = 0.9904

DILUPBiCG:  Solving for T, Initial residual = 9.99489e-07, Final residual = 9.99489e-07, No Iterations 0
Time = 0.9905

DILUPBiCG:  Solving for T, Initial residual = 9.99489e-07, Final residual = 9.99489e-07, No Iterations 0
Time = 0.9906

DILUPBiCG:  Solving for T, Initial residual = 9.99489e-07, Final residual = 9.99489e-07, No Iterations 0
Time = 0.9907

DILUPBiCG:  Solving for T, Initial residual = 9.99489e-07, Final residual = 9.99489e-07, No Iterations 0
Time = 0.9908

DILUPBiCG:  Solving for T, Initial residual = 9.99489e-07, Final residual = 9.99489e-07, No Iterations 0
Time = 0.9909

DILUPBiCG:  Solving for T, Initial residual = 9.99489e-07, Final residual = 9.99489e-07, No Iterations 0
Time = 0.991

DILUPBiCG:  Solving for T, Initial residual = 9.99489e-07, Final residual = 9.99489e-07, No Iterations 0
Time = 0.9911

DILUPBiCG:  Solving for T, Initial residual = 9.99489e-07, Final residual = 9.99489e-07, No Iterations 0
Time = 0.9912

DILUPBiCG:  Solving for T, Initial residual = 9.99489e-07, Final residual = 9.99489e-07, No Iterations 0
Time = 0.9913

DILUPBiCG:  Solving for T, Initial residual = 9.99489e-07, Final residual = 9.99489e-07, No Iterations 0
Time = 0.9914

DILUPBiCG:  Solving for T, Initial residual = 9.99489e-07, Final residual = 9.99489e-07, No Iterations 0
Time = 0.9915

DILUPBiCG:  Solving for T, Initial residual = 9.99489e-07, Final residual = 9.99489e-07, No Iterations 0
Time = 0.9916

DILUPBiCG:  Solving for T, Initial residual = 9.99489e-07, Final residual = 9.99489e-07, No Iterations 0
Time = 0.9917

DILUPBiCG:  Solving for T, Initial residual = 9.99489e-07, Final residual = 9.99489e-07, No Iterations 0
Time = 0.9918

DILUPBiCG:  Solving for T, Initial residual = 9.99489e-07, Final residual = 9.99489e-07, No Iterations 0
Time = 0.9919

DILUPBiCG:  Solving for T, Initial residual = 9.99489e-07, Final residual = 9.99489e-07, No Iterations 0
Time = 0.992

DILUPBiCG:  Solving for T, Initial residual = 9.99489e-07, Final residual = 9.99489e-07, No Iterations 0
Time = 0.9921

DILUPBiCG:  Solving for T, Initial residual = 9.99489e-07, Final residual = 9.99489e-07, No Iterations 0
Time = 0.9922

DILUPBiCG:  Solving for T, Initial residual = 9.99489e-07, Final residual = 9.99489e-07, No Iterations 0
Time = 0.9923

DILUPBiCG:  Solving for T, Initial residual = 9.99489e-07, Final residual = 9.99489e-07, No Iterations 0
Time = 0.9924

DILUPBiCG:  Solving for T, Initial residual = 9.99489e-07, Final residual = 9.99489e-07, No Iterations 0
Time = 0.9925

DILUPBiCG:  Solving for T, Initial residual = 9.99489e-07, Final residual = 9.99489e-07, No Iterations 0
Time = 0.9926

DILUPBiCG:  Solving for T, Initial residual = 9.99489e-07, Final residual = 9.99489e-07, No Iterations 0
Time = 0.9927

DILUPBiCG:  Solving for T, Initial residual = 9.99489e-07, Final residual = 9.99489e-07, No Iterations 0
Time = 0.9928

DILUPBiCG:  Solving for T, Initial residual = 9.99489e-07, Final residual = 9.99489e-07, No Iterations 0
Time = 0.9929

DILUPBiCG:  Solving for T, Initial residual = 9.99489e-07, Final residual = 9.99489e-07, No Iterations 0
Time = 0.993

DILUPBiCG:  Solving for T, Initial residual = 9.99489e-07, Final residual = 9.99489e-07, No Iterations 0
Time = 0.9931

DILUPBiCG:  Solving for T, Initial residual = 9.99489e-07, Final residual = 9.99489e-07, No Iterations 0
Time = 0.9932

DILUPBiCG:  Solving for T, Initial residual = 9.99489e-07, Final residual = 9.99489e-07, No Iterations 0
Time = 0.9933

DILUPBiCG:  Solving for T, Initial residual = 9.99489e-07, Final residual = 9.99489e-07, No Iterations 0
Time = 0.9934

DILUPBiCG:  Solving for T, Initial residual = 9.99489e-07, Final residual = 9.99489e-07, No Iterations 0
Time = 0.9935

DILUPBiCG:  Solving for T, Initial residual = 9.99489e-07, Final residual = 9.99489e-07, No Iterations 0
Time = 0.9936

DILUPBiCG:  Solving for T, Initial residual = 9.99489e-07, Final residual = 9.99489e-07, No Iterations 0
Time = 0.9937

DILUPBiCG:  Solving for T, Initial residual = 9.99489e-07, Final residual = 9.99489e-07, No Iterations 0
Time = 0.9938

DILUPBiCG:  Solving for T, Initial residual = 9.99489e-07, Final residual = 9.99489e-07, No Iterations 0
Time = 0.9939

DILUPBiCG:  Solving for T, Initial residual = 9.99489e-07, Final residual = 9.99489e-07, No Iterations 0
Time = 0.994

DILUPBiCG:  Solving for T, Initial residual = 9.99489e-07, Final residual = 9.99489e-07, No Iterations 0
Time = 0.9941

DILUPBiCG:  Solving for T, Initial residual = 9.99489e-07, Final residual = 9.99489e-07, No Iterations 0
Time = 0.9942

DILUPBiCG:  Solving for T, Initial residual = 9.99489e-07, Final residual = 9.99489e-07, No Iterations 0
Time = 0.9943

DILUPBiCG:  Solving for T, Initial residual = 9.99489e-07, Final residual = 9.99489e-07, No Iterations 0
Time = 0.9944

DILUPBiCG:  Solving for T, Initial residual = 9.99489e-07, Final residual = 9.99489e-07, No Iterations 0
Time = 0.9945

DILUPBiCG:  Solving for T, Initial residual = 9.99489e-07, Final residual = 9.99489e-07, No Iterations 0
Time = 0.9946

DILUPBiCG:  Solving for T, Initial residual = 9.99489e-07, Final residual = 9.99489e-07, No Iterations 0
Time = 0.9947

DILUPBiCG:  Solving for T, Initial residual = 9.99489e-07, Final residual = 9.99489e-07, No Iterations 0
Time = 0.9948

DILUPBiCG:  Solving for T, Initial residual = 9.99489e-07, Final residual = 9.99489e-07, No Iterations 0
Time = 0.9949

DILUPBiCG:  Solving for T, Initial residual = 9.99489e-07, Final residual = 9.99489e-07, No Iterations 0
Time = 0.995

DILUPBiCG:  Solving for T, Initial residual = 9.99489e-07, Final residual = 9.99489e-07, No Iterations 0
Time = 0.9951

DILUPBiCG:  Solving for T, Initial residual = 9.99489e-07, Final residual = 9.99489e-07, No Iterations 0
Time = 0.9952

DILUPBiCG:  Solving for T, Initial residual = 9.99489e-07, Final residual = 9.99489e-07, No Iterations 0
Time = 0.9953

DILUPBiCG:  Solving for T, Initial residual = 9.99489e-07, Final residual = 9.99489e-07, No Iterations 0
Time = 0.9954

DILUPBiCG:  Solving for T, Initial residual = 9.99489e-07, Final residual = 9.99489e-07, No Iterations 0
Time = 0.9955

DILUPBiCG:  Solving for T, Initial residual = 9.99489e-07, Final residual = 9.99489e-07, No Iterations 0
Time = 0.9956

DILUPBiCG:  Solving for T, Initial residual = 9.99489e-07, Final residual = 9.99489e-07, No Iterations 0
Time = 0.9957

DILUPBiCG:  Solving for T, Initial residual = 9.99489e-07, Final residual = 9.99489e-07, No Iterations 0
Time = 0.9958

DILUPBiCG:  Solving for T, Initial residual = 9.99489e-07, Final residual = 9.99489e-07, No Iterations 0
Time = 0.9959

DILUPBiCG:  Solving for T, Initial residual = 9.99489e-07, Final residual = 9.99489e-07, No Iterations 0
Time = 0.996

DILUPBiCG:  Solving for T, Initial residual = 9.99489e-07, Final residual = 9.99489e-07, No Iterations 0
Time = 0.9961

DILUPBiCG:  Solving for T, Initial residual = 9.99489e-07, Final residual = 9.99489e-07, No Iterations 0
Time = 0.9962

DILUPBiCG:  Solving for T, Initial residual = 9.99489e-07, Final residual = 9.99489e-07, No Iterations 0
Time = 0.9963

DILUPBiCG:  Solving for T, Initial residual = 9.99489e-07, Final residual = 9.99489e-07, No Iterations 0
Time = 0.9964

DILUPBiCG:  Solving for T, Initial residual = 9.99489e-07, Final residual = 9.99489e-07, No Iterations 0
Time = 0.9965

DILUPBiCG:  Solving for T, Initial residual = 9.99489e-07, Final residual = 9.99489e-07, No Iterations 0
Time = 0.9966

DILUPBiCG:  Solving for T, Initial residual = 9.99489e-07, Final residual = 9.99489e-07, No Iterations 0
Time = 0.9967

DILUPBiCG:  Solving for T, Initial residual = 9.99489e-07, Final residual = 9.99489e-07, No Iterations 0
Time = 0.9968

DILUPBiCG:  Solving for T, Initial residual = 9.99489e-07, Final residual = 9.99489e-07, No Iterations 0
Time = 0.9969

DILUPBiCG:  Solving for T, Initial residual = 9.99489e-07, Final residual = 9.99489e-07, No Iterations 0
Time = 0.997

DILUPBiCG:  Solving for T, Initial residual = 9.99489e-07, Final residual = 9.99489e-07, No Iterations 0
Time = 0.9971

DILUPBiCG:  Solving for T, Initial residual = 9.99489e-07, Final residual = 9.99489e-07, No Iterations 0
Time = 0.9972

DILUPBiCG:  Solving for T, Initial residual = 9.99489e-07, Final residual = 9.99489e-07, No Iterations 0
Time = 0.9973

DILUPBiCG:  Solving for T, Initial residual = 9.99489e-07, Final residual = 9.99489e-07, No Iterations 0
Time = 0.9974

DILUPBiCG:  Solving for T, Initial residual = 9.99489e-07, Final residual = 9.99489e-07, No Iterations 0
Time = 0.9975

DILUPBiCG:  Solving for T, Initial residual = 9.99489e-07, Final residual = 9.99489e-07, No Iterations 0
Time = 0.9976

DILUPBiCG:  Solving for T, Initial residual = 9.99489e-07, Final residual = 9.99489e-07, No Iterations 0
Time = 0.9977

DILUPBiCG:  Solving for T, Initial residual = 9.99489e-07, Final residual = 9.99489e-07, No Iterations 0
Time = 0.9978

DILUPBiCG:  Solving for T, Initial residual = 9.99489e-07, Final residual = 9.99489e-07, No Iterations 0
Time = 0.9979

DILUPBiCG:  Solving for T, Initial residual = 9.99489e-07, Final residual = 9.99489e-07, No Iterations 0
Time = 0.998

DILUPBiCG:  Solving for T, Initial residual = 9.99489e-07, Final residual = 9.99489e-07, No Iterations 0
Time = 0.9981

DILUPBiCG:  Solving for T, Initial residual = 9.99489e-07, Final residual = 9.99489e-07, No Iterations 0
Time = 0.9982

DILUPBiCG:  Solving for T, Initial residual = 9.99489e-07, Final residual = 9.99489e-07, No Iterations 0
Time = 0.9983

DILUPBiCG:  Solving for T, Initial residual = 9.99489e-07, Final residual = 9.99489e-07, No Iterations 0
Time = 0.9984

DILUPBiCG:  Solving for T, Initial residual = 9.99489e-07, Final residual = 9.99489e-07, No Iterations 0
Time = 0.9985

DILUPBiCG:  Solving for T, Initial residual = 9.99489e-07, Final residual = 9.99489e-07, No Iterations 0
Time = 0.9986

DILUPBiCG:  Solving for T, Initial residual = 9.99489e-07, Final residual = 9.99489e-07, No Iterations 0
Time = 0.9987

DILUPBiCG:  Solving for T, Initial residual = 9.99489e-07, Final residual = 9.99489e-07, No Iterations 0
Time = 0.9988

DILUPBiCG:  Solving for T, Initial residual = 9.99489e-07, Final residual = 9.99489e-07, No Iterations 0
Time = 0.9989

DILUPBiCG:  Solving for T, Initial residual = 9.99489e-07, Final residual = 9.99489e-07, No Iterations 0
Time = 0.999

DILUPBiCG:  Solving for T, Initial residual = 9.99489e-07, Final residual = 9.99489e-07, No Iterations 0
Time = 0.9991

DILUPBiCG:  Solving for T, Initial residual = 9.99489e-07, Final residual = 9.99489e-07, No Iterations 0
Time = 0.9992

DILUPBiCG:  Solving for T, Initial residual = 9.99489e-07, Final residual = 9.99489e-07, No Iterations 0
Time = 0.9993

DILUPBiCG:  Solving for T, Initial residual = 9.99489e-07, Final residual = 9.99489e-07, No Iterations 0
Time = 0.9994

DILUPBiCG:  Solving for T, Initial residual = 9.99489e-07, Final residual = 9.99489e-07, No Iterations 0
Time = 0.9995

DILUPBiCG:  Solving for T, Initial residual = 9.99489e-07, Final residual = 9.99489e-07, No Iterations 0
Time = 0.9996

DILUPBiCG:  Solving for T, Initial residual = 9.99489e-07, Final residual = 9.99489e-07, No Iterations 0
Time = 0.9997

DILUPBiCG:  Solving for T, Initial residual = 9.99489e-07, Final residual = 9.99489e-07, No Iterations 0
Time = 0.9998

DILUPBiCG:  Solving for T, Initial residual = 9.99489e-07, Final residual = 9.99489e-07, No Iterations 0
Time = 0.9999

DILUPBiCG:  Solving for T, Initial residual = 9.99489e-07, Final residual = 9.99489e-07, No Iterations 0
Time = 1

DILUPBiCG:  Solving for T, Initial residual = 9.99489e-07, Final residual = 9.99489e-07, No Iterations 0
End

